xflr5 v6.59

 Calculated polar for: NACA 0008

 1 1 Reynolds number fixed          Mach number fixed         

 xtrf =   1.000 (top)        1.000 (bottom)
 Mach =   0.050     Re =     1.000 e 6     Ncrit =   5.000

  alpha     CL        CD       CDp       Cm    Top Xtr Bot Xtr   Cpmin    Chinge    XCp    
 ------- -------- --------- --------- -------- ------- ------- -------- --------- ---------
  -3.000  -0.3193   0.00715   0.00162  -0.0035  0.9681  0.1173  -1.3386   0.0000   0.0000   0.0000   0.2364
  -2.900  -0.3070   0.00704   0.00155  -0.0037  0.9643  0.1307  -1.2718   0.0000   0.0000   0.0000   0.2351
  -2.800  -0.2954   0.00693   0.00150  -0.0038  0.9593  0.1447  -1.2079   0.0000   0.0000   0.0000   0.2343
  -2.700  -0.2838   0.00682   0.00144  -0.0040  0.9543  0.1602  -1.1478   0.0000   0.0000   0.0000   0.2333
  -2.600  -0.2726   0.00671   0.00138  -0.0040  0.9482  0.1757  -1.0933   0.0000   0.0000   0.0000   0.2328
  -2.500  -0.2617   0.00661   0.00133  -0.0039  0.9418  0.1923  -1.0398   0.0000   0.0000   0.0000   0.2324
  -2.400  -0.2510   0.00650   0.00128  -0.0038  0.9349  0.2093  -0.9877   0.0000   0.0000   0.0000   0.2322
  -2.300  -0.2405   0.00641   0.00123  -0.0037  0.9271  0.2265  -0.9366   0.0000   0.0000   0.0000   0.2322
  -2.200  -0.2301   0.00631   0.00118  -0.0035  0.9189  0.2444  -0.8898   0.0000   0.0000   0.0000   0.2324
  -2.100  -0.2199   0.00623   0.00114  -0.0033  0.9102  0.2623  -0.8454   0.0000   0.0000   0.0000   0.2327
  -2.000  -0.2096   0.00614   0.00109  -0.0030  0.9010  0.2808  -0.8018   0.0000   0.0000   0.0000   0.2331
  -1.900  -0.1994   0.00607   0.00105  -0.0028  0.8911  0.2990  -0.7585   0.0000   0.0000   0.0000   0.2335
  -1.800  -0.1892   0.00599   0.00102  -0.0026  0.8807  0.3180  -0.7198   0.0000   0.0000   0.0000   0.2338
  -1.700  -0.1789   0.00592   0.00097  -0.0024  0.8700  0.3367  -0.6815   0.0000   0.0000   0.0000   0.2342
  -1.600  -0.1686   0.00586   0.00094  -0.0022  0.8588  0.3558  -0.6442   0.0000   0.0000   0.0000   0.2346
  -1.400  -0.1479   0.00574   0.00088  -0.0018  0.8352  0.3936  -0.5762   0.0000   0.0000   0.0000   0.2354
  -1.300  -0.1375   0.00570   0.00085  -0.0017  0.8228  0.4125  -0.5453   0.0000   0.0000   0.0000   0.2357
  -1.200  -0.1270   0.00565   0.00083  -0.0015  0.8100  0.4310  -0.5150   0.0000   0.0000   0.0000   0.2360
  -1.100  -0.1166   0.00561   0.00080  -0.0013  0.7970  0.4496  -0.4872   0.0000   0.0000   0.0000   0.2364
  -1.000  -0.1061   0.00558   0.00078  -0.0012  0.7835  0.4679  -0.4608   0.0000   0.0000   0.0000   0.2366
  -0.900  -0.0956   0.00555   0.00076  -0.0010  0.7698  0.4858  -0.4359   0.0000   0.0000   0.0000   0.2369
  -0.800  -0.0850   0.00551   0.00074  -0.0009  0.7559  0.5035  -0.4127   0.0000   0.0000   0.0000   0.2371
  -0.700  -0.0744   0.00549   0.00073  -0.0008  0.7416  0.5210  -0.3911   0.0000   0.0000   0.0000   0.2373
  -0.600  -0.0638   0.00547   0.00072  -0.0007  0.7272  0.5383  -0.3711   0.0000   0.0000   0.0000   0.2375
  -0.500  -0.0532   0.00546   0.00071  -0.0005  0.7126  0.5552  -0.3525   0.0000   0.0000   0.0000   0.2376
  -0.300  -0.0320   0.00543   0.00069  -0.0003  0.6826  0.5882  -0.3192   0.0000   0.0000   0.0000   0.2378
  -0.200  -0.0213   0.00542   0.00069  -0.0002  0.6674  0.6044  -0.3043   0.0000   0.0000   0.0000   0.2379
  -0.100  -0.0107   0.00542   0.00068  -0.0001  0.6519  0.6204  -0.2905   0.0000   0.0000   0.0000   0.2379
   0.000  -0.0000   0.00542   0.00068   0.0000  0.6363  0.6363  -0.2775   0.0000   0.0000   0.0000   0.4051
   0.100   0.0107   0.00542   0.00068   0.0001  0.6204  0.6519  -0.2905   0.0000   0.0000   0.0000   0.2379
   0.200   0.0213   0.00542   0.00069   0.0002  0.6044  0.6673  -0.3043   0.0000   0.0000   0.0000   0.2379
   0.300   0.0320   0.00543   0.00069   0.0003  0.5882  0.6826  -0.3192   0.0000   0.0000   0.0000   0.2378
   0.400   0.0426   0.00544   0.00070   0.0004  0.5718  0.6977  -0.3353   0.0000   0.0000   0.0000   0.2377
   0.500   0.0532   0.00546   0.00071   0.0005  0.5552  0.7126  -0.3525   0.0000   0.0000   0.0000   0.2376
   0.600   0.0638   0.00547   0.00072   0.0007  0.5383  0.7272  -0.3711   0.0000   0.0000   0.0000   0.2375
   0.700   0.0744   0.00549   0.00073   0.0008  0.5210  0.7416  -0.3911   0.0000   0.0000   0.0000   0.2373
   0.800   0.0850   0.00551   0.00074   0.0009  0.5034  0.7558  -0.4127   0.0000   0.0000   0.0000   0.2371
   0.900   0.0956   0.00555   0.00076   0.0010  0.4858  0.7698  -0.4359   0.0000   0.0000   0.0000   0.2369
   1.000   0.1061   0.00558   0.00078   0.0012  0.4679  0.7835  -0.4608   0.0000   0.0000   0.0000   0.2366
   1.100   0.1166   0.00561   0.00080   0.0013  0.4495  0.7969  -0.4872   0.0000   0.0000   0.0000   0.2364
   1.200   0.1270   0.00565   0.00083   0.0015  0.4309  0.8101  -0.5150   0.0000   0.0000   0.0000   0.2360
   1.300   0.1375   0.00570   0.00085   0.0017  0.4125  0.8228  -0.5453   0.0000   0.0000   0.0000   0.2357
   1.400   0.1479   0.00574   0.00088   0.0018  0.3936  0.8352  -0.5762   0.0000   0.0000   0.0000   0.2354
   1.600   0.1686   0.00586   0.00094   0.0022  0.3558  0.8588  -0.6442   0.0000   0.0000   0.0000   0.2346
   1.700   0.1789   0.00592   0.00097   0.0024  0.3367  0.8700  -0.6815   0.0000   0.0000   0.0000   0.2342
   1.800   0.1892   0.00599   0.00102   0.0026  0.3181  0.8807  -0.7198   0.0000   0.0000   0.0000   0.2338
   1.900   0.1994   0.00607   0.00105   0.0028  0.2990  0.8911  -0.7585   0.0000   0.0000   0.0000   0.2335
   2.000   0.2097   0.00614   0.00109   0.0030  0.2808  0.9010  -0.8018   0.0000   0.0000   0.0000   0.2331
   2.100   0.2199   0.00623   0.00114   0.0033  0.2623  0.9102  -0.8455   0.0000   0.0000   0.0000   0.2327
   2.200   0.2301   0.00631   0.00118   0.0035  0.2444  0.9189  -0.8898   0.0000   0.0000   0.0000   0.2324
   2.300   0.2405   0.00641   0.00123   0.0037  0.2265  0.9271  -0.9366   0.0000   0.0000   0.0000   0.2323
   2.400   0.2510   0.00650   0.00128   0.0038  0.2093  0.9349  -0.9877   0.0000   0.0000   0.0000   0.2322
   2.500   0.2617   0.00661   0.00133   0.0039  0.1923  0.9418  -1.0399   0.0000   0.0000   0.0000   0.2324
   2.600   0.2727   0.00671   0.00138   0.0040  0.1757  0.9482  -1.0933   0.0000   0.0000   0.0000   0.2328
   2.700   0.2838   0.00682   0.00144   0.0040  0.1602  0.9543  -1.1478   0.0000   0.0000   0.0000   0.2333
   2.800   0.2954   0.00693   0.00150   0.0038  0.1447  0.9593  -1.2079   0.0000   0.0000   0.0000   0.2343
   2.900   0.3070   0.00704   0.00155   0.0037  0.1307  0.9643  -1.2718   0.0000   0.0000   0.0000   0.2351
   3.000   0.3193   0.00715   0.00162   0.0035  0.1173  0.9681  -1.3386   0.0000   0.0000   0.0000   0.2364
   3.100   0.3312   0.00726   0.00168   0.0033  0.1055  0.9723  -1.4052   0.0000   0.0000   0.0000   0.2373
   3.200   0.3439   0.00737   0.00174   0.0029  0.0939  0.9752  -1.4751   0.0000   0.0000   0.0000   0.2387
   3.300   0.3564   0.00748   0.00180   0.0026  0.0840  0.9783  -1.5450   0.0000   0.0000   0.0000   0.2399
   3.400   0.3688   0.00758   0.00187   0.0023  0.0756  0.9811  -1.6161   0.0000   0.0000   0.0000   0.2409
   3.500   0.3818   0.00768   0.00194   0.0018  0.0678  0.9832  -1.6987   0.0000   0.0000   0.0000   0.2422
   3.600   0.3944   0.00778   0.00201   0.0015  0.0608  0.9857  -1.7813   0.0000   0.0000   0.0000   0.2432
   3.700   0.4070   0.00788   0.00208   0.0011  0.0547  0.9878  -1.8654   0.0000   0.0000   0.0000   0.2442
   3.800   0.4201   0.00797   0.00215   0.0007  0.0496  0.9894  -1.9522   0.0000   0.0000   0.0000   0.2453
   3.900   0.4329   0.00807   0.00222   0.0003  0.0454  0.9912  -2.0392   0.0000   0.0000   0.0000   0.2462
   4.000   0.4456   0.00816   0.00230  -0.0001  0.0414  0.9930  -2.1268   0.0000   0.0000   0.0000   0.2470
   4.100   0.4591   0.00825   0.00237  -0.0006  0.0378  0.9939  -2.2186   0.0000   0.0000   0.0000   0.2481
   4.200   0.4723   0.00835   0.00245  -0.0011  0.0346  0.9950  -2.3108   0.0000   0.0000   0.0000   0.2491
   4.300   0.4855   0.00845   0.00254  -0.0016  0.0318  0.9962  -2.4037   0.0000   0.0000   0.0000   0.2500
   4.400   0.4985   0.00854   0.00262  -0.0020  0.0298  0.9974  -2.4987   0.0000   0.0000   0.0000   0.2507
   4.500   0.5118   0.00863   0.00271  -0.0025  0.0278  0.9982  -2.6068   0.0000   0.0000   0.0000   0.2515
   4.600   0.5250   0.00873   0.00279  -0.0030  0.0260  0.9991  -2.7157   0.0000   0.0000   0.0000   0.2523
   4.700   0.5381   0.00882   0.00288  -0.0035  0.0244  1.0000  -2.8257   0.0000   0.0000   0.0000   0.2529
   4.800   0.5480   0.00891   0.00296  -0.0033  0.0230  1.0000  -2.9227   0.0000   0.0000   0.0000   0.2523
   4.900   0.5579   0.00900   0.00305  -0.0030  0.0218  1.0000  -3.0207   0.0000   0.0000   0.0000   0.2517
   5.000   0.5679   0.00909   0.00314  -0.0028  0.0207  1.0000  -3.1203   0.0000   0.0000   0.0000   0.2511
   5.100   0.5779   0.00918   0.00323  -0.0025  0.0197  1.0000  -3.2210   0.0000   0.0000   0.0000   0.2505
   5.200   0.5878   0.00929   0.00333  -0.0023  0.0187  1.0000  -3.3220   0.0000   0.0000   0.0000   0.2500
   5.300   0.5979   0.00938   0.00343  -0.0021  0.0181  1.0000  -3.4244   0.0000   0.0000   0.0000   0.2495
   5.400   0.6079   0.00947   0.00352  -0.0018  0.0174  1.0000  -3.5282   0.0000   0.0000   0.0000   0.2490
   5.500   0.6179   0.00956   0.00362  -0.0016  0.0167  1.0000  -3.6330   0.0000   0.0000   0.0000   0.2485
   5.600   0.6279   0.00967   0.00373  -0.0014  0.0161  1.0000  -3.7391   0.0000   0.0000   0.0000   0.2480
   5.700   0.6379   0.00978   0.00384  -0.0012  0.0154  1.0000  -3.8457   0.0000   0.0000   0.0000   0.2475
   5.800   0.6479   0.00990   0.00396  -0.0009  0.0149  1.0000  -3.9525   0.0000   0.0000   0.0000   0.2471
   5.900   0.6581   0.01000   0.00407  -0.0007  0.0145  1.0000  -4.0621   0.0000   0.0000   0.0000   0.2467
   6.000   0.6682   0.01010   0.00419  -0.0005  0.0140  1.0000  -4.1731   0.0000   0.0000   0.0000   0.2463
   6.100   0.6784   0.01021   0.00430  -0.0004  0.0134  1.0000  -4.2857   0.0000   0.0000   0.0000   0.2459
   6.200   0.6885   0.01032   0.00441  -0.0002  0.0129  1.0000  -4.3998   0.0000   0.0000   0.0000   0.2455
   6.300   0.6986   0.01045   0.00454   0.0000  0.0124  1.0000  -4.5153   0.0000   0.0000   0.0000   0.2452
   6.400   0.7086   0.01061   0.00470   0.0002  0.0119  1.0000  -4.6416   0.0000   0.0000   0.0000   0.2448
   6.500   0.7188   0.01072   0.00483   0.0004  0.0117  1.0000  -4.7718   0.0000   0.0000   0.0000   0.2445
   6.600   0.7290   0.01084   0.00496   0.0006  0.0115  1.0000  -4.9033   0.0000   0.0000   0.0000   0.2442
   6.700   0.7393   0.01096   0.00510   0.0007  0.0112  1.0000  -5.0360   0.0000   0.0000   0.0000   0.2439
   6.800   0.7495   0.01109   0.00524   0.0009  0.0109  1.0000  -5.1703   0.0000   0.0000   0.0000   0.2436
   6.900   0.7597   0.01122   0.00539   0.0011  0.0106  1.0000  -5.3062   0.0000   0.0000   0.0000   0.2433
   7.000   0.7699   0.01135   0.00553   0.0012  0.0103  1.0000  -5.4436   0.0000   0.0000   0.0000   0.2430
   7.100   0.7801   0.01149   0.00569   0.0014  0.0101  1.0000  -5.5823   0.0000   0.0000   0.0000   0.2427
   7.200   0.7902   0.01164   0.00584   0.0015  0.0098  1.0000  -5.7219   0.0000   0.0000   0.0000   0.2424
   7.300   0.8003   0.01181   0.00602   0.0017  0.0095  1.0000  -5.8611   0.0000   0.0000   0.0000   0.2422
   7.400   0.8102   0.01202   0.00624   0.0019  0.0093  1.0000  -5.9971   0.0000   0.0000   0.0000   0.2418
   7.500   0.8202   0.01220   0.00644   0.0021  0.0091  1.0000  -6.1364   0.0000   0.0000   0.0000   0.2416
   7.600   0.8304   0.01235   0.00661   0.0022  0.0090  1.0000  -6.2800   0.0000   0.0000   0.0000   0.2413
   7.700   0.8405   0.01250   0.00679   0.0024  0.0088  1.0000  -6.4245   0.0000   0.0000   0.0000   0.2411
   7.800   0.8506   0.01266   0.00698   0.0025  0.0087  1.0000  -6.5704   0.0000   0.0000   0.0000   0.2408
   7.900   0.8608   0.01282   0.00716   0.0027  0.0085  1.0000  -6.7180   0.0000   0.0000   0.0000   0.2406
   8.000   0.8708   0.01299   0.00734   0.0028  0.0083  1.0000  -6.8675   0.0000   0.0000   0.0000   0.2403
   8.100   0.8809   0.01315   0.00753   0.0030  0.0081  1.0000  -7.0191   0.0000   0.0000   0.0000   0.2401
   8.200   0.8910   0.01331   0.00771   0.0031  0.0079  1.0000  -7.1728   0.0000   0.0000   0.0000   0.2398
   8.300   0.9011   0.01347   0.00789   0.0033  0.0077  1.0000  -7.3284   0.0000   0.0000   0.0000   0.2396
   8.400   0.9111   0.01364   0.00807   0.0034  0.0076  1.0000  -7.4850   0.0000   0.0000   0.0000   0.2394
   8.500   0.9211   0.01383   0.00827   0.0036  0.0074  1.0000  -7.6420   0.0000   0.0000   0.0000   0.2391
   8.600   0.9310   0.01403   0.00849   0.0038  0.0072  1.0000  -7.7980   0.0000   0.0000   0.0000   0.2389
   8.700   0.9407   0.01425   0.00874   0.0039  0.0071  1.0000  -7.9516   0.0000   0.0000   0.0000   0.2386
   8.800   0.9502   0.01452   0.00904   0.0041  0.0069  1.0000  -8.1010   0.0000   0.0000   0.0000   0.2383
   8.900   0.9594   0.01485   0.00940   0.0044  0.0067  1.0000  -8.2424   0.0000   0.0000   0.0000   0.2380
   9.000   0.9692   0.01506   0.00963   0.0046  0.0067  1.0000  -8.4008   0.0000   0.0000   0.0000   0.2377
   9.100   0.9790   0.01527   0.00988   0.0047  0.0066  1.0000  -8.5594   0.0000   0.0000   0.0000   0.2375
   9.200   0.9887   0.01549   0.01013   0.0049  0.0066  1.0000  -8.7181   0.0000   0.0000   0.0000   0.2372
   9.300   0.9983   0.01572   0.01040   0.0051  0.0065  1.0000  -8.8770   0.0000   0.0000   0.0000   0.2370
   9.400   1.0079   0.01596   0.01067   0.0053  0.0064  1.0000  -9.0361   0.0000   0.0000   0.0000   0.2367
   9.500   1.0174   0.01620   0.01096   0.0055  0.0063  1.0000  -9.1955   0.0000   0.0000   0.0000   0.2364
   9.600   1.0269   0.01646   0.01125   0.0057  0.0062  1.0000  -9.3553   0.0000   0.0000   0.0000   0.2362
   9.700   1.0363   0.01672   0.01155   0.0059  0.0061  1.0000  -9.5156   0.0000   0.0000   0.0000   0.2359
   9.800   1.0456   0.01698   0.01185   0.0061  0.0060  1.0000  -9.6766   0.0000   0.0000   0.0000   0.2356
   9.900   1.0549   0.01726   0.01216   0.0063  0.0060  1.0000  -9.8383   0.0000   0.0000   0.0000   0.2353
  10.000   1.0641   0.01753   0.01247   0.0066  0.0059  1.0000  -10.0009   0.0000   0.0000   0.0000   0.2351
  10.100   1.0733   0.01781   0.01280   0.0068  0.0058  1.0000  -10.1643   0.0000   0.0000   0.0000   0.2348
  10.200   1.0824   0.01810   0.01312   0.0070  0.0057  1.0000  -10.3287   0.0000   0.0000   0.0000   0.2345
  10.300   1.0915   0.01839   0.01345   0.0072  0.0056  1.0000  -10.4941   0.0000   0.0000   0.0000   0.2342
  10.400   1.1005   0.01868   0.01378   0.0074  0.0056  1.0000  -10.6605   0.0000   0.0000   0.0000   0.2339
  10.500   1.1095   0.01898   0.01412   0.0077  0.0055  1.0000  -10.8384   0.0000   0.0000   0.0000   0.2337
  10.600   1.1184   0.01929   0.01446   0.0079  0.0054  1.0000  -11.0233   0.0000   0.0000   0.0000   0.2334
  10.700   1.1272   0.01960   0.01481   0.0081  0.0054  1.0000  -11.2088   0.0000   0.0000   0.0000   0.2331
  10.800   1.1359   0.01992   0.01517   0.0084  0.0053  1.0000  -11.3945   0.0000   0.0000   0.0000   0.2328
  10.900   1.1445   0.02025   0.01554   0.0086  0.0052  1.0000  -11.5801   0.0000   0.0000   0.0000   0.2325
  11.000   1.1529   0.02060   0.01593   0.0089  0.0052  1.0000  -11.7650   0.0000   0.0000   0.0000   0.2322
  11.100   1.1612   0.02096   0.01634   0.0092  0.0051  1.0000  -11.9486   0.0000   0.0000   0.0000   0.2318
  11.200   1.1693   0.02135   0.01677   0.0095  0.0051  1.0000  -12.1301   0.0000   0.0000   0.0000   0.2315
  11.300   1.1772   0.02177   0.01724   0.0098  0.0050  1.0000  -12.3080   0.0000   0.0000   0.0000   0.2312
  11.400   1.1847   0.02224   0.01777   0.0101  0.0049  1.0000  -12.4806   0.0000   0.0000   0.0000   0.2308
  11.500   1.1917   0.02277   0.01835   0.0105  0.0049  1.0000  -12.6455   0.0000   0.0000   0.0000   0.2304
  11.600   1.1981   0.02337   0.01903   0.0109  0.0048  1.0000  -12.7992   0.0000   0.0000   0.0000   0.2299
  11.700   1.2036   0.02408   0.01982   0.0114  0.0047  1.0000  -12.9373   0.0000   0.0000   0.0000   0.2294
  11.800   1.2095   0.02472   0.02053   0.0119  0.0047  1.0000  -13.0868   0.0000   0.0000   0.0000   0.2290
  11.900   1.2165   0.02519   0.02106   0.0122  0.0047  1.0000  -13.2592   0.0000   0.0000   0.0000   0.2286
  12.000   1.2233   0.02568   0.02161   0.0126  0.0047  1.0000  -13.4311   0.0000   0.0000   0.0000   0.2282
  12.100   1.2299   0.02617   0.02217   0.0130  0.0046  1.0000  -13.6019   0.0000   0.0000   0.0000   0.2278
  12.200   1.2363   0.02668   0.02274   0.0134  0.0046  1.0000  -13.7711   0.0000   0.0000   0.0000   0.2274
  12.300   1.2425   0.02721   0.02333   0.0138  0.0046  1.0000  -13.9381   0.0000   0.0000   0.0000   0.2270
  12.400   1.2484   0.02775   0.02394   0.0142  0.0045  1.0000  -14.1024   0.0000   0.0000   0.0000   0.2266
  12.500   1.2540   0.02832   0.02457   0.0146  0.0045  1.0000  -14.2636   0.0000   0.0000   0.0000   0.2261
  12.600   1.2592   0.02891   0.02523   0.0150  0.0045  1.0000  -14.4209   0.0000   0.0000   0.0000   0.2257
  12.700   1.2641   0.02952   0.02591   0.0155  0.0044  1.0000  -14.5740   0.0000   0.0000   0.0000   0.2252
  12.800   1.2685   0.03016   0.02661   0.0160  0.0044  1.0000  -14.7220   0.0000   0.0000   0.0000   0.2247
  12.900   1.2725   0.03083   0.02735   0.0165  0.0044  1.0000  -14.8643   0.0000   0.0000   0.0000   0.2242
  13.000   1.2759   0.03152   0.02811   0.0170  0.0043  1.0000  -15.0001   0.0000   0.0000   0.0000   0.2237
  13.100   1.2788   0.03226   0.02892   0.0176  0.0043  1.0000  -15.1283   0.0000   0.0000   0.0000   0.2231
  13.200   1.2809   0.03303   0.02975   0.0182  0.0042  1.0000  -15.2477   0.0000   0.0000   0.0000   0.2225
  13.300   1.2814   0.03380   0.03059   0.0190  0.0042  1.0000  -15.3469   0.0000   0.0000   0.0000   0.2217
  13.400   1.2806   0.03461   0.03147   0.0199  0.0042  1.0000  -15.4312   0.0000   0.0000   0.0000   0.2209
  13.500   1.2791   0.03550   0.03243   0.0207  0.0042  1.0000  -15.5038   0.0000   0.0000   0.0000   0.2201
  13.600   1.2768   0.03649   0.03349   0.0213  0.0041  1.0000  -15.5647   0.0000   0.0000   0.0000   0.2194
  13.700   1.2740   0.03761   0.03467   0.0218  0.0041  1.0000  -15.6133   0.0000   0.0000   0.0000   0.2188
  13.800   1.2704   0.03887   0.03601   0.0220  0.0041  1.0000  -15.6483   0.0000   0.0000   0.0000   0.2184
  13.900   1.2660   0.04033   0.03754   0.0218  0.0041  1.0000  -15.6678   0.0000   0.0000   0.0000   0.2183
  14.000   1.2610   0.04203   0.03932   0.0212  0.0041  1.0000  -15.6695   0.0000   0.0000   0.0000   0.2185
  14.100   1.2550   0.04405   0.04142   0.0202  0.0041  1.0000  -15.6491   0.0000   0.0000   0.0000   0.2191
  14.200   1.2479   0.04650   0.04396   0.0185  0.0041  1.0000  -15.6003   0.0000   0.0000   0.0000   0.2201
  14.300   1.2394   0.04956   0.04710   0.0160  0.0041  1.0000  -15.5120   0.0000   0.0000   0.0000   0.2218
  14.400   1.2287   0.05350   0.05114   0.0124  0.0041  1.0000  -15.3631   0.0000   0.0000   0.0000   0.2244
  14.500   1.2137   0.05890   0.05665   0.0075  0.0041  1.0000  -15.1069   0.0000   0.0000   0.0000   0.2281
  14.600   1.1891   0.06702   0.06491   0.0009  0.0042  1.0000  -14.6205   0.0000   0.0000   0.0000   0.2334
  14.700   1.1427   0.07975   0.07778  -0.0074  0.0043  1.0000  -13.6523   0.0000   0.0000   0.0000   0.2407
  14.800   1.0858   0.09337   0.09148  -0.0148  0.0045  1.0000  -12.4747   0.0000   0.0000   0.0000   0.2480
  14.900   1.0399   0.10443   0.10260  -0.0207  0.0046  1.0000  -11.5121   0.0000   0.0000   0.0000   0.2544
  15.000   1.0020   0.11409   0.11229  -0.0257  0.0047  1.0000  -10.6867   0.0000   0.0000   0.0000   0.2603


