xflr5 v6.59

 Calculated polar for: NACA 0008

 1 1 Reynolds number fixed          Mach number fixed         

 xtrf =   1.000 (top)        1.000 (bottom)
 Mach =   0.050     Re =     0.300 e 6     Ncrit =   5.000

  alpha     CL        CD       CDp       Cm    Top Xtr Bot Xtr   Cpmin    Chinge    XCp    
 ------- -------- --------- --------- -------- ------- ------- -------- --------- ---------
  -3.000  -0.3640   0.00935   0.00250   0.0051  1.0000  0.2561  -1.4541   0.0000   0.0000   0.0000   0.2614
  -2.900  -0.3544   0.00918   0.00243   0.0053  1.0000  0.2807  -1.3944   0.0000   0.0000   0.0000   0.2624
  -2.800  -0.3448   0.00902   0.00237   0.0055  1.0000  0.3058  -1.3353   0.0000   0.0000   0.0000   0.2635
  -2.700  -0.3352   0.00887   0.00232   0.0058  1.0000  0.3310  -1.2767   0.0000   0.0000   0.0000   0.2647
  -2.600  -0.3256   0.00872   0.00227   0.0060  1.0000  0.3565  -1.2188   0.0000   0.0000   0.0000   0.2659
  -2.500  -0.3160   0.00857   0.00222   0.0062  1.0000  0.3818  -1.1655   0.0000   0.0000   0.0000   0.2673
  -2.400  -0.3063   0.00843   0.00217   0.0064  1.0000  0.4072  -1.1148   0.0000   0.0000   0.0000   0.2687
  -2.300  -0.2967   0.00830   0.00213   0.0067  1.0000  0.4324  -1.0645   0.0000   0.0000   0.0000   0.2702
  -2.200  -0.2837   0.00815   0.00210   0.0062  0.9985  0.4607  -1.0070   0.0000   0.0000   0.0000   0.2695
  -2.100  -0.2697   0.00800   0.00206   0.0055  0.9964  0.4895  -0.9477   0.0000   0.0000   0.0000   0.2680
  -2.000  -0.2557   0.00786   0.00203   0.0048  0.9942  0.5178  -0.8942   0.0000   0.0000   0.0000   0.2665
  -1.900  -0.2418   0.00773   0.00200   0.0041  0.9919  0.5454  -0.8425   0.0000   0.0000   0.0000   0.2649
  -1.800  -0.2281   0.00760   0.00198   0.0036  0.9893  0.5723  -0.7918   0.0000   0.0000   0.0000   0.2634
  -1.700  -0.2139   0.00748   0.00196   0.0029  0.9871  0.5987  -0.7439   0.0000   0.0000   0.0000   0.2613
  -1.600  -0.2008   0.00736   0.00193   0.0025  0.9839  0.6233  -0.7002   0.0000   0.0000   0.0000   0.2601
  -1.500  -0.1870   0.00725   0.00192   0.0019  0.9812  0.6476  -0.6564   0.0000   0.0000   0.0000   0.2581
  -1.400  -0.1740   0.00715   0.00191   0.0016  0.9776  0.6705  -0.6179   0.0000   0.0000   0.0000   0.2569
  -1.300  -0.1609   0.00705   0.00190   0.0012  0.9741  0.6924  -0.5798   0.0000   0.0000   0.0000   0.2553
  -1.200  -0.1480   0.00696   0.00189   0.0009  0.9703  0.7135  -0.5453   0.0000   0.0000   0.0000   0.2540
  -1.100  -0.1351   0.00688   0.00188   0.0006  0.9661  0.7335  -0.5124   0.0000   0.0000   0.0000   0.2525
  -1.000  -0.1223   0.00681   0.00188   0.0004  0.9619  0.7526  -0.4815   0.0000   0.0000   0.0000   0.2511
  -0.900  -0.1097   0.00674   0.00188   0.0002  0.9572  0.7709  -0.4533   0.0000   0.0000   0.0000   0.2497
  -0.800  -0.0971   0.00668   0.00188   0.0000  0.9522  0.7881  -0.4270   0.0000   0.0000   0.0000   0.2485
  -0.700  -0.0846   0.00663   0.00188  -0.0001  0.9469  0.8044  -0.4025   0.0000   0.0000   0.0000   0.2469
  -0.600  -0.0725   0.00658   0.00188  -0.0001  0.9409  0.8198  -0.3803   0.0000   0.0000   0.0000   0.2465
  -0.500  -0.0598   0.00655   0.00189  -0.0002  0.9351  0.8344  -0.3593   0.0000   0.0000   0.0000   0.2439
  -0.400  -0.0480   0.00652   0.00189  -0.0002  0.9278  0.8480  -0.3407   0.0000   0.0000   0.0000   0.2443
  -0.300  -0.0359   0.00650   0.00190  -0.0002  0.9203  0.8608  -0.3233   0.0000   0.0000   0.0000   0.2437
  -0.200  -0.0237   0.00648   0.00190  -0.0002  0.9125  0.8726  -0.3070   0.0000   0.0000   0.0000   0.2416
  -0.100  -0.0118   0.00647   0.00190  -0.0001  0.9036  0.8837  -0.2922   0.0000   0.0000   0.0000   0.2409
   0.000   0.0000   0.00647   0.00190  -0.0000  0.8940  0.8940  -0.2783   0.0000   0.0000   0.0000   0.4545
   0.100   0.0118   0.00647   0.00190   0.0001  0.8837  0.9036  -0.2922   0.0000   0.0000   0.0000   0.2409
   0.200   0.0237   0.00648   0.00190   0.0002  0.8726  0.9125  -0.3070   0.0000   0.0000   0.0000   0.2416
   0.300   0.0359   0.00650   0.00189   0.0002  0.8608  0.9203  -0.3233   0.0000   0.0000   0.0000   0.2437
   0.400   0.0480   0.00652   0.00189   0.0002  0.8480  0.9278  -0.3407   0.0000   0.0000   0.0000   0.2443
   0.500   0.0598   0.00655   0.00189   0.0002  0.8344  0.9351  -0.3593   0.0000   0.0000   0.0000   0.2439
   0.600   0.0725   0.00658   0.00188   0.0001  0.8198  0.9409  -0.3803   0.0000   0.0000   0.0000   0.2465
   0.700   0.0846   0.00663   0.00188   0.0001  0.8044  0.9470  -0.4025   0.0000   0.0000   0.0000   0.2469
   0.800   0.0971   0.00668   0.00188  -0.0000  0.7881  0.9523  -0.4270   0.0000   0.0000   0.0000   0.2485
   0.900   0.1096   0.00674   0.00188  -0.0002  0.7709  0.9572  -0.4533   0.0000   0.0000   0.0000   0.2497
   1.000   0.1223   0.00681   0.00188  -0.0004  0.7526  0.9620  -0.4815   0.0000   0.0000   0.0000   0.2511
   1.100   0.1351   0.00688   0.00188  -0.0006  0.7335  0.9662  -0.5124   0.0000   0.0000   0.0000   0.2525
   1.200   0.1480   0.00696   0.00189  -0.0009  0.7135  0.9703  -0.5453   0.0000   0.0000   0.0000   0.2540
   1.300   0.1609   0.00705   0.00190  -0.0012  0.6924  0.9741  -0.5798   0.0000   0.0000   0.0000   0.2553
   1.400   0.1740   0.00715   0.00191  -0.0016  0.6705  0.9776  -0.6179   0.0000   0.0000   0.0000   0.2569
   1.500   0.1870   0.00725   0.00192  -0.0019  0.6475  0.9811  -0.6564   0.0000   0.0000   0.0000   0.2581
   1.600   0.2008   0.00736   0.00193  -0.0025  0.6233  0.9839  -0.7002   0.0000   0.0000   0.0000   0.2601
   1.700   0.2139   0.00748   0.00196  -0.0029  0.5987  0.9871  -0.7439   0.0000   0.0000   0.0000   0.2613
   1.800   0.2281   0.00760   0.00198  -0.0036  0.5723  0.9893  -0.7918   0.0000   0.0000   0.0000   0.2634
   1.900   0.2418   0.00773   0.00200  -0.0041  0.5455  0.9919  -0.8425   0.0000   0.0000   0.0000   0.2649
   2.000   0.2557   0.00786   0.00203  -0.0048  0.5178  0.9942  -0.8942   0.0000   0.0000   0.0000   0.2665
   2.100   0.2697   0.00800   0.00206  -0.0055  0.4895  0.9964  -0.9477   0.0000   0.0000   0.0000   0.2680
   2.200   0.2837   0.00815   0.00210  -0.0062  0.4607  0.9985  -1.0070   0.0000   0.0000   0.0000   0.2695
   2.300   0.2966   0.00830   0.00213  -0.0067  0.4324  1.0000  -1.0644   0.0000   0.0000   0.0000   0.2701
   2.400   0.3063   0.00843   0.00217  -0.0064  0.4072  1.0000  -1.1147   0.0000   0.0000   0.0000   0.2686
   2.500   0.3160   0.00857   0.00222  -0.0062  0.3818  1.0000  -1.1654   0.0000   0.0000   0.0000   0.2672
   2.600   0.3256   0.00872   0.00227  -0.0060  0.3565  1.0000  -1.2188   0.0000   0.0000   0.0000   0.2659
   2.700   0.3352   0.00887   0.00232  -0.0058  0.3311  1.0000  -1.2767   0.0000   0.0000   0.0000   0.2647
   2.800   0.3448   0.00902   0.00237  -0.0055  0.3059  1.0000  -1.3352   0.0000   0.0000   0.0000   0.2635
   2.900   0.3544   0.00918   0.00243  -0.0053  0.2807  1.0000  -1.3943   0.0000   0.0000   0.0000   0.2624
   3.000   0.3640   0.00935   0.00250  -0.0051  0.2562  1.0000  -1.4540   0.0000   0.0000   0.0000   0.2614
   3.100   0.3735   0.00952   0.00257  -0.0049  0.2322  1.0000  -1.5143   0.0000   0.0000   0.0000   0.2604
   3.200   0.3831   0.00969   0.00265  -0.0046  0.2091  1.0000  -1.5751   0.0000   0.0000   0.0000   0.2594
   3.300   0.3926   0.00987   0.00273  -0.0044  0.1871  1.0000  -1.6366   0.0000   0.0000   0.0000   0.2585
   3.400   0.4021   0.01004   0.00283  -0.0042  0.1667  1.0000  -1.7052   0.0000   0.0000   0.0000   0.2576
   3.500   0.4117   0.01022   0.00293  -0.0040  0.1479  1.0000  -1.7757   0.0000   0.0000   0.0000   0.2567
   3.600   0.4213   0.01039   0.00303  -0.0037  0.1307  1.0000  -1.8470   0.0000   0.0000   0.0000   0.2559
   3.700   0.4308   0.01056   0.00313  -0.0035  0.1158  1.0000  -1.9191   0.0000   0.0000   0.0000   0.2551
   3.800   0.4404   0.01073   0.00324  -0.0032  0.1025  1.0000  -1.9919   0.0000   0.0000   0.0000   0.2543
   3.900   0.4500   0.01090   0.00335  -0.0030  0.0910  1.0000  -2.0655   0.0000   0.0000   0.0000   0.2535
   4.000   0.4597   0.01106   0.00347  -0.0027  0.0811  1.0000  -2.1398   0.0000   0.0000   0.0000   0.2528
   4.100   0.4693   0.01121   0.00359  -0.0025  0.0728  1.0000  -2.2147   0.0000   0.0000   0.0000   0.2521
   4.200   0.4790   0.01137   0.00371  -0.0022  0.0657  1.0000  -2.2903   0.0000   0.0000   0.0000   0.2514
   4.300   0.4887   0.01153   0.00385  -0.0020  0.0597  1.0000  -2.3666   0.0000   0.0000   0.0000   0.2507
   4.400   0.4984   0.01168   0.00399  -0.0017  0.0547  1.0000  -2.4434   0.0000   0.0000   0.0000   0.2501
   4.500   0.5082   0.01184   0.00413  -0.0015  0.0505  1.0000  -2.5248   0.0000   0.0000   0.0000   0.2494
   4.600   0.5179   0.01200   0.00428  -0.0012  0.0467  1.0000  -2.6133   0.0000   0.0000   0.0000   0.2488
   4.700   0.5277   0.01215   0.00443  -0.0010  0.0434  1.0000  -2.7026   0.0000   0.0000   0.0000   0.2483
   4.800   0.5374   0.01232   0.00458  -0.0007  0.0406  1.0000  -2.7927   0.0000   0.0000   0.0000   0.2477
   4.900   0.5473   0.01247   0.00475  -0.0005  0.0382  1.0000  -2.8829   0.0000   0.0000   0.0000   0.2472
   5.000   0.5570   0.01265   0.00492  -0.0003  0.0362  1.0000  -2.9744   0.0000   0.0000   0.0000   0.2467
   5.100   0.5669   0.01282   0.00510  -0.0000  0.0343  1.0000  -3.0655   0.0000   0.0000   0.0000   0.2461
   5.200   0.5767   0.01299   0.00529   0.0002  0.0324  1.0000  -3.1588   0.0000   0.0000   0.0000   0.2457
   5.300   0.5863   0.01319   0.00548   0.0005  0.0308  1.0000  -3.2531   0.0000   0.0000   0.0000   0.2452
   5.400   0.5963   0.01335   0.00567   0.0007  0.0293  1.0000  -3.3465   0.0000   0.0000   0.0000   0.2447
   5.500   0.6061   0.01353   0.00586   0.0009  0.0279  1.0000  -3.4417   0.0000   0.0000   0.0000   0.2443
   5.600   0.6158   0.01374   0.00607   0.0012  0.0269  1.0000  -3.5374   0.0000   0.0000   0.0000   0.2439
   5.700   0.6254   0.01397   0.00631   0.0014  0.0260  1.0000  -3.6300   0.0000   0.0000   0.0000   0.2434
   5.800   0.6352   0.01418   0.00656   0.0017  0.0250  1.0000  -3.7225   0.0000   0.0000   0.0000   0.2430
   5.900   0.6450   0.01438   0.00679   0.0019  0.0241  1.0000  -3.8180   0.0000   0.0000   0.0000   0.2426
   6.000   0.6547   0.01459   0.00700   0.0021  0.0232  1.0000  -3.9173   0.0000   0.0000   0.0000   0.2422
   6.100   0.6642   0.01485   0.00726   0.0024  0.0224  1.0000  -4.0171   0.0000   0.0000   0.0000   0.2418
   6.200   0.6739   0.01507   0.00752   0.0026  0.0216  1.0000  -4.1122   0.0000   0.0000   0.0000   0.2414
   6.300   0.6836   0.01529   0.00778   0.0029  0.0207  1.0000  -4.2095   0.0000   0.0000   0.0000   0.2410
   6.400   0.6933   0.01551   0.00803   0.0031  0.0200  1.0000  -4.3217   0.0000   0.0000   0.0000   0.2407
   6.500   0.7029   0.01576   0.00829   0.0033  0.0194  1.0000  -4.4358   0.0000   0.0000   0.0000   0.2403
   6.600   0.7124   0.01603   0.00857   0.0036  0.0190  1.0000  -4.5509   0.0000   0.0000   0.0000   0.2400
   6.700   0.7215   0.01637   0.00892   0.0038  0.0185  1.0000  -4.6627   0.0000   0.0000   0.0000   0.2396
   6.800   0.7309   0.01667   0.00927   0.0041  0.0181  1.0000  -4.7696   0.0000   0.0000   0.0000   0.2392
   6.900   0.7403   0.01699   0.00964   0.0044  0.0177  1.0000  -4.8764   0.0000   0.0000   0.0000   0.2388
   7.000   0.7497   0.01731   0.01002   0.0047  0.0172  1.0000  -4.9840   0.0000   0.0000   0.0000   0.2384
   7.100   0.7590   0.01764   0.01039   0.0050  0.0168  1.0000  -5.0948   0.0000   0.0000   0.0000   0.2380
   7.200   0.7684   0.01794   0.01073   0.0052  0.0164  1.0000  -5.2105   0.0000   0.0000   0.0000   0.2376
   7.300   0.7778   0.01822   0.01104   0.0055  0.0159  1.0000  -5.3320   0.0000   0.0000   0.0000   0.2373
   7.400   0.7872   0.01850   0.01133   0.0057  0.0155  1.0000  -5.4580   0.0000   0.0000   0.0000   0.2371
   7.500   0.7962   0.01885   0.01169   0.0059  0.0152  1.0000  -5.5822   0.0000   0.0000   0.0000   0.2368
   7.600   0.8052   0.01924   0.01213   0.0062  0.0148  1.0000  -5.6942   0.0000   0.0000   0.0000   0.2364
   7.700   0.8145   0.01961   0.01258   0.0065  0.0144  1.0000  -5.8036   0.0000   0.0000   0.0000   0.2360
   7.800   0.8235   0.02001   0.01306   0.0068  0.0140  1.0000  -5.9123   0.0000   0.0000   0.0000   0.2357
   7.900   0.8324   0.02044   0.01356   0.0071  0.0137  1.0000  -6.0193   0.0000   0.0000   0.0000   0.2353
   8.000   0.8413   0.02088   0.01408   0.0074  0.0134  1.0000  -6.1280   0.0000   0.0000   0.0000   0.2349
   8.100   0.8501   0.02132   0.01457   0.0077  0.0132  1.0000  -6.2390   0.0000   0.0000   0.0000   0.2346
   8.200   0.8589   0.02175   0.01506   0.0080  0.0129  1.0000  -6.3528   0.0000   0.0000   0.0000   0.2342
   8.300   0.8676   0.02218   0.01554   0.0083  0.0127  1.0000  -6.4691   0.0000   0.0000   0.0000   0.2339
   8.400   0.8763   0.02261   0.01602   0.0085  0.0125  1.0000  -6.5874   0.0000   0.0000   0.0000   0.2336
   8.500   0.8848   0.02305   0.01651   0.0088  0.0124  1.0000  -6.7066   0.0000   0.0000   0.0000   0.2332
   8.600   0.8930   0.02354   0.01704   0.0091  0.0122  1.0000  -6.8242   0.0000   0.0000   0.0000   0.2329
   8.700   0.9009   0.02412   0.01767   0.0094  0.0120  1.0000  -6.9345   0.0000   0.0000   0.0000   0.2325
   8.800   0.9083   0.02484   0.01847   0.0098  0.0119  1.0000  -7.0259   0.0000   0.0000   0.0000   0.2321
   8.900   0.9158   0.02557   0.01935   0.0102  0.0117  1.0000  -7.1025   0.0000   0.0000   0.0000   0.2316
   9.000   0.9229   0.02639   0.02034   0.0107  0.0116  1.0000  -7.1708   0.0000   0.0000   0.0000   0.2311
   9.100   0.9296   0.02729   0.02140   0.0111  0.0114  1.0000  -7.2315   0.0000   0.0000   0.0000   0.2306
   9.200   0.9358   0.02825   0.02252   0.0116  0.0112  1.0000  -7.2875   0.0000   0.0000   0.0000   0.2301
   9.300   0.9417   0.02923   0.02368   0.0121  0.0110  1.0000  -7.3422   0.0000   0.0000   0.0000   0.2296
   9.400   0.9473   0.03022   0.02482   0.0126  0.0108  1.0000  -7.4001   0.0000   0.0000   0.0000   0.2291
   9.500   0.9529   0.03115   0.02590   0.0130  0.0106  1.0000  -7.4659   0.0000   0.0000   0.0000   0.2286
   9.600   0.9584   0.03202   0.02690   0.0135  0.0104  1.0000  -7.5412   0.0000   0.0000   0.0000   0.2281
   9.700   0.9639   0.03286   0.02785   0.0139  0.0102  1.0000  -7.6224   0.0000   0.0000   0.0000   0.2277
   9.800   0.9694   0.03362   0.02872   0.0142  0.0100  1.0000  -7.7237   0.0000   0.0000   0.0000   0.2273
   9.900   0.9749   0.03433   0.02951   0.0146  0.0099  1.0000  -7.8356   0.0000   0.0000   0.0000   0.2269
  10.000   0.9803   0.03500   0.03027   0.0149  0.0097  1.0000  -7.9517   0.0000   0.0000   0.0000   0.2265
  10.100   0.9856   0.03568   0.03102   0.0152  0.0096  1.0000  -8.0681   0.0000   0.0000   0.0000   0.2262
  10.200   0.9903   0.03640   0.03181   0.0156  0.0095  1.0000  -8.1804   0.0000   0.0000   0.0000   0.2258
  10.300   0.9944   0.03718   0.03267   0.0159  0.0094  1.0000  -8.2840   0.0000   0.0000   0.0000   0.2253
  10.400   0.9974   0.03812   0.03369   0.0163  0.0093  1.0000  -8.3693   0.0000   0.0000   0.0000   0.2249
  10.500   0.9992   0.03920   0.03487   0.0168  0.0093  1.0000  -8.4354   0.0000   0.0000   0.0000   0.2244
  10.600   0.9996   0.04042   0.03619   0.0172  0.0092  1.0000  -8.4830   0.0000   0.0000   0.0000   0.2238
  10.700   0.9983   0.04180   0.03769   0.0177  0.0092  1.0000  -8.5081   0.0000   0.0000   0.0000   0.2232
  10.800   0.9947   0.04344   0.03945   0.0182  0.0091  1.0000  -8.4951   0.0000   0.0000   0.0000   0.2226
  10.900   0.9882   0.04521   0.04138   0.0187  0.0091  1.0000  -8.4458   0.0000   0.0000   0.0000   0.2218
  11.000   0.9804   0.04695   0.04325   0.0193  0.0091  1.0000  -8.3925   0.0000   0.0000   0.0000   0.2210
  11.100   0.9722   0.04883   0.04525   0.0193  0.0091  1.0000  -8.3346   0.0000   0.0000   0.0000   0.2207
  11.200   0.9639   0.05091   0.04744   0.0186  0.0091  1.0000  -8.2725   0.0000   0.0000   0.0000   0.2211
  11.300   0.9557   0.05326   0.04989   0.0172  0.0091  1.0000  -8.2055   0.0000   0.0000   0.0000   0.2222
  11.400   0.9477   0.05597   0.05268   0.0150  0.0091  1.0000  -8.1320   0.0000   0.0000   0.0000   0.2242
  11.500   0.9401   0.05911   0.05590   0.0120  0.0091  1.0000  -8.0491   0.0000   0.0000   0.0000   0.2271
  11.600   0.7527   0.11431   0.11137  -0.0232  0.0108  1.0000  -3.8354   0.0000   0.0000   0.0000   0.2724
  11.700   0.7489   0.11726   0.11431  -0.0245  0.0107  1.0000  -3.7388   0.0000   0.0000   0.0000   0.2743
  11.800   0.7457   0.12002   0.11705  -0.0257  0.0106  1.0000  -3.6552   0.0000   0.0000   0.0000   0.2761
  11.900   0.7432   0.12264   0.11966  -0.0269  0.0105  1.0000  -3.5817   0.0000   0.0000   0.0000   0.2777
  12.000   0.7410   0.12516   0.12218  -0.0280  0.0105  1.0000  -3.5142   0.0000   0.0000   0.0000   0.2792
  12.100   0.7390   0.12765   0.12465  -0.0290  0.0104  1.0000  -3.4479   0.0000   0.0000   0.0000   0.2807
  12.200   0.7374   0.13010   0.12710  -0.0301  0.0104  1.0000  -3.3843   0.0000   0.0000   0.0000   0.2821
  12.300   0.7360   0.13249   0.12948  -0.0311  0.0104  1.0000  -3.3252   0.0000   0.0000   0.0000   0.2835
  12.400   0.7349   0.13480   0.13179  -0.0320  0.0104  1.0000  -3.2701   0.0000   0.0000   0.0000   0.2848
  12.500   0.7340   0.13708   0.13406  -0.0330  0.0104  1.0000  -3.2175   0.0000   0.0000   0.0000   0.2861
  12.600   0.7333   0.13932   0.13629  -0.0339  0.0104  1.0000  -3.1670   0.0000   0.0000   0.0000   0.2873
  12.700   0.7328   0.14152   0.13849  -0.0348  0.0103  1.0000  -3.1190   0.0000   0.0000   0.0000   0.2885
  12.800   0.7326   0.14367   0.14064  -0.0356  0.0103  1.0000  -3.0733   0.0000   0.0000   0.0000   0.2897
  12.900   0.7324   0.14583   0.14280  -0.0365  0.0103  1.0000  -3.0283   0.0000   0.0000   0.0000   0.2908
  13.000   0.7324   0.14795   0.14490  -0.0374  0.0103  1.0000  -2.9844   0.0000   0.0000   0.0000   0.2920
  13.100   0.7325   0.15006   0.14701  -0.0383  0.0103  1.0000  -2.9404   0.0000   0.0000   0.0000   0.2931
  13.200   0.7327   0.15214   0.14909  -0.0391  0.0103  1.0000  -2.8977   0.0000   0.0000   0.0000   0.2942
  13.300   0.7330   0.15419   0.15113  -0.0400  0.0103  1.0000  -2.8564   0.0000   0.0000   0.0000   0.2953
  13.400   0.7335   0.15622   0.15316  -0.0408  0.0104  1.0000  -2.8163   0.0000   0.0000   0.0000   0.2963
  13.500   0.7341   0.15822   0.15516  -0.0416  0.0104  1.0000  -2.7774   0.0000   0.0000   0.0000   0.2973
  13.600   0.7348   0.16021   0.15714  -0.0425  0.0104  1.0000  -2.7397   0.0000   0.0000   0.0000   0.2983
  13.700   0.7357   0.16217   0.15909  -0.0433  0.0105  1.0000  -2.7034   0.0000   0.0000   0.0000   0.2993
  13.800   0.7367   0.16410   0.16103  -0.0441  0.0106  1.0000  -2.6687   0.0000   0.0000   0.0000   0.3003
  13.900   0.7378   0.16601   0.16293  -0.0449  0.0106  1.0000  -2.6359   0.0000   0.0000   0.0000   0.3012
  14.000   0.7391   0.16788   0.16480  -0.0457  0.0107  1.0000  -2.6054   0.0000   0.0000   0.0000   0.3021
  14.100   0.7405   0.16973   0.16665  -0.0465  0.0108  1.0000  -2.5775   0.0000   0.0000   0.0000   0.3029
  14.200   0.7420   0.17153   0.16845  -0.0472  0.0109  1.0000  -2.5525   0.0000   0.0000   0.0000   0.3038
  14.300   0.7437   0.17330   0.17021  -0.0480  0.0110  1.0000  -2.5313   0.0000   0.0000   0.0000   0.3045
  14.400   0.7454   0.17499   0.17191  -0.0487  0.0111  1.0000  -2.5147   0.0000   0.0000   0.0000   0.3053
  14.500   0.7474   0.17662   0.17353  -0.0494  0.0113  1.0000  -2.5042   0.0000   0.0000   0.0000   0.3059
  14.600   0.7495   0.17816   0.17507  -0.0501  0.0114  1.0000  -2.5026   0.0000   0.0000   0.0000   0.3065
  14.700   0.7518   0.17959   0.17650  -0.0506  0.0115  1.0000  -2.5139   0.0000   0.0000   0.0000   0.3069
  14.800   0.7546   0.18083   0.17775  -0.0511  0.0117  1.0000  -2.5441   0.0000   0.0000   0.0000   0.3071
  14.900   0.7578   0.18186   0.17878  -0.0513  0.0118  1.0000  -2.5990   0.0000   0.0000   0.0000   0.3070
  15.000   0.7615   0.18270   0.17963  -0.0513  0.0119  1.0000  -2.6785   0.0000   0.0000   0.0000   0.3066


