xflr5 v6.59

 Calculated polar for: NACA 0008

 1 1 Reynolds number fixed          Mach number fixed         

 xtrf =   1.000 (top)        1.000 (bottom)
 Mach =   0.050     Re =     0.160 e 6     Ncrit =   5.000

  alpha     CL        CD       CDp       Cm    Top Xtr Bot Xtr   Cpmin    Chinge    XCp    
 ------- -------- --------- --------- -------- ------- ------- -------- --------- ---------
  -3.000  -0.3665   0.01073   0.00328   0.0044  1.0000  0.4123  -1.4444   0.0000   0.0000   0.0000   0.2594
  -2.900  -0.3574   0.01054   0.00322   0.0048  1.0000  0.4418  -1.3865   0.0000   0.0000   0.0000   0.2608
  -2.800  -0.3483   0.01037   0.00316   0.0052  1.0000  0.4709  -1.3291   0.0000   0.0000   0.0000   0.2623
  -2.700  -0.3392   0.01020   0.00311   0.0056  1.0000  0.4995  -1.2723   0.0000   0.0000   0.0000   0.2640
  -2.600  -0.3301   0.01004   0.00306   0.0060  1.0000  0.5276  -1.2160   0.0000   0.0000   0.0000   0.2658
  -2.500  -0.3210   0.00989   0.00302   0.0064  1.0000  0.5552  -1.1662   0.0000   0.0000   0.0000   0.2677
  -2.400  -0.3119   0.00975   0.00298   0.0069  1.0000  0.5823  -1.1168   0.0000   0.0000   0.0000   0.2698
  -2.300  -0.3028   0.00961   0.00295   0.0074  1.0000  0.6088  -1.0679   0.0000   0.0000   0.0000   0.2721
  -2.200  -0.2937   0.00949   0.00293   0.0079  1.0000  0.6348  -1.0194   0.0000   0.0000   0.0000   0.2746
  -2.100  -0.2846   0.00938   0.00292   0.0084  1.0000  0.6602  -0.9714   0.0000   0.0000   0.0000   0.2773
  -2.000  -0.2754   0.00928   0.00291   0.0089  1.0000  0.6850  -0.9267   0.0000   0.0000   0.0000   0.2803
  -1.900  -0.2663   0.00919   0.00291   0.0095  1.0000  0.7088  -0.8843   0.0000   0.0000   0.0000   0.2835
  -1.800  -0.2570   0.00911   0.00291   0.0100  1.0000  0.7321  -0.8423   0.0000   0.0000   0.0000   0.2870
  -1.700  -0.2478   0.00905   0.00292   0.0106  1.0000  0.7546  -0.8006   0.0000   0.0000   0.0000   0.2908
  -1.600  -0.2384   0.00899   0.00294   0.0111  1.0000  0.7761  -0.7615   0.0000   0.0000   0.0000   0.2948
  -1.500  -0.2288   0.00896   0.00296   0.0117  1.0000  0.7969  -0.7240   0.0000   0.0000   0.0000   0.2991
  -1.400  -0.2190   0.00893   0.00297   0.0122  1.0000  0.8168  -0.6865   0.0000   0.0000   0.0000   0.3036
  -1.300  -0.2088   0.00892   0.00300   0.0126  1.0000  0.8359  -0.6507   0.0000   0.0000   0.0000   0.3083
  -1.200  -0.1983   0.00891   0.00302   0.0129  1.0000  0.8541  -0.6160   0.0000   0.0000   0.0000   0.3131
  -1.100  -0.1869   0.00892   0.00306   0.0130  1.0000  0.8711  -0.5815   0.0000   0.0000   0.0000   0.3179
  -1.000  -0.1750   0.00893   0.00309   0.0130  1.0000  0.8873  -0.5484   0.0000   0.0000   0.0000   0.3226
  -0.900  -0.1625   0.00895   0.00312   0.0128  1.0000  0.9024  -0.5164   0.0000   0.0000   0.0000   0.3274
  -0.800  -0.1486   0.00898   0.00314   0.0124  1.0000  0.9161  -0.4845   0.0000   0.0000   0.0000   0.3317
  -0.700  -0.1342   0.00900   0.00317   0.0118  1.0000  0.9287  -0.4543   0.0000   0.0000   0.0000   0.3362
  -0.600  -0.1159   0.00903   0.00319   0.0103  0.9978  0.9390  -0.4222   0.0000   0.0000   0.0000   0.3374
  -0.500  -0.0969   0.00905   0.00320   0.0087  0.9951  0.9479  -0.3924   0.0000   0.0000   0.0000   0.3380
  -0.400  -0.0776   0.00907   0.00321   0.0070  0.9924  0.9558  -0.3650   0.0000   0.0000   0.0000   0.3384
  -0.300  -0.0582   0.00908   0.00322   0.0052  0.9893  0.9623  -0.3402   0.0000   0.0000   0.0000   0.3385
  -0.200  -0.0383   0.00909   0.00323   0.0034  0.9863  0.9679  -0.3173   0.0000   0.0000   0.0000   0.3371
  -0.100  -0.0193   0.00910   0.00323   0.0017  0.9824  0.9734  -0.2970   0.0000   0.0000   0.0000   0.3381
   0.000   0.0000   0.00910   0.00323  -0.0000  0.9781  0.9781  -0.2783   0.0000   0.0000   0.0000   0.3871
   0.100   0.0193   0.00910   0.00323  -0.0017  0.9734  0.9824  -0.2970   0.0000   0.0000   0.0000   0.3381
   0.200   0.0383   0.00909   0.00323  -0.0034  0.9679  0.9863  -0.3173   0.0000   0.0000   0.0000   0.3371
   0.300   0.0582   0.00908   0.00322  -0.0052  0.9623  0.9893  -0.3402   0.0000   0.0000   0.0000   0.3385
   0.400   0.0776   0.00907   0.00321  -0.0070  0.9558  0.9924  -0.3650   0.0000   0.0000   0.0000   0.3384
   0.500   0.0969   0.00905   0.00320  -0.0087  0.9479  0.9951  -0.3924   0.0000   0.0000   0.0000   0.3380
   0.600   0.1159   0.00903   0.00318  -0.0103  0.9390  0.9978  -0.4222   0.0000   0.0000   0.0000   0.3374
   0.700   0.1342   0.00900   0.00317  -0.0118  0.9287  1.0000  -0.4542   0.0000   0.0000   0.0000   0.3362
   0.800   0.1486   0.00897   0.00314  -0.0124  0.9161  1.0000  -0.4844   0.0000   0.0000   0.0000   0.3317
   0.900   0.1625   0.00895   0.00311  -0.0128  0.9025  1.0000  -0.5163   0.0000   0.0000   0.0000   0.3274
   1.000   0.1750   0.00893   0.00309  -0.0130  0.8873  1.0000  -0.5484   0.0000   0.0000   0.0000   0.3226
   1.100   0.1869   0.00892   0.00306  -0.0130  0.8711  1.0000  -0.5814   0.0000   0.0000   0.0000   0.3179
   1.200   0.1983   0.00891   0.00302  -0.0129  0.8541  1.0000  -0.6160   0.0000   0.0000   0.0000   0.3131
   1.300   0.2088   0.00892   0.00300  -0.0126  0.8358  1.0000  -0.6507   0.0000   0.0000   0.0000   0.3083
   1.400   0.2190   0.00893   0.00297  -0.0122  0.8168  1.0000  -0.6865   0.0000   0.0000   0.0000   0.3036
   1.500   0.2288   0.00896   0.00296  -0.0117  0.7969  1.0000  -0.7240   0.0000   0.0000   0.0000   0.2991
   1.600   0.2384   0.00899   0.00294  -0.0111  0.7761  1.0000  -0.7615   0.0000   0.0000   0.0000   0.2948
   1.700   0.2477   0.00905   0.00292  -0.0106  0.7545  1.0000  -0.8005   0.0000   0.0000   0.0000   0.2908
   1.800   0.2570   0.00911   0.00291  -0.0100  0.7321  1.0000  -0.8422   0.0000   0.0000   0.0000   0.2870
   1.900   0.2662   0.00919   0.00291  -0.0095  0.7088  1.0000  -0.8843   0.0000   0.0000   0.0000   0.2835
   2.000   0.2754   0.00928   0.00291  -0.0089  0.6850  1.0000  -0.9267   0.0000   0.0000   0.0000   0.2803
   2.100   0.2845   0.00938   0.00292  -0.0084  0.6603  1.0000  -0.9714   0.0000   0.0000   0.0000   0.2773
   2.200   0.2937   0.00949   0.00293  -0.0079  0.6348  1.0000  -1.0194   0.0000   0.0000   0.0000   0.2746
   2.300   0.3028   0.00961   0.00295  -0.0074  0.6088  1.0000  -1.0679   0.0000   0.0000   0.0000   0.2721
   2.400   0.3119   0.00975   0.00297  -0.0069  0.5823  1.0000  -1.1168   0.0000   0.0000   0.0000   0.2698
   2.500   0.3210   0.00989   0.00302  -0.0064  0.5553  1.0000  -1.1661   0.0000   0.0000   0.0000   0.2677
   2.600   0.3301   0.01004   0.00306  -0.0060  0.5277  1.0000  -1.2160   0.0000   0.0000   0.0000   0.2657
   2.900   0.3574   0.01054   0.00322  -0.0048  0.4419  1.0000  -1.3864   0.0000   0.0000   0.0000   0.2608
   3.000   0.3665   0.01073   0.00328  -0.0044  0.4124  1.0000  -1.4443   0.0000   0.0000   0.0000   0.2594
   3.100   0.3755   0.01092   0.00335  -0.0041  0.3824  1.0000  -1.5027   0.0000   0.0000   0.0000   0.2581
   3.200   0.3846   0.01112   0.00343  -0.0037  0.3523  1.0000  -1.5616   0.0000   0.0000   0.0000   0.2569
   3.300   0.3937   0.01134   0.00352  -0.0034  0.3222  1.0000  -1.6209   0.0000   0.0000   0.0000   0.2558
   3.400   0.4027   0.01156   0.00364  -0.0031  0.2920  1.0000  -1.6826   0.0000   0.0000   0.0000   0.2548
   3.500   0.4118   0.01180   0.00374  -0.0028  0.2622  1.0000  -1.7503   0.0000   0.0000   0.0000   0.2539
   3.600   0.4209   0.01204   0.00386  -0.0025  0.2332  1.0000  -1.8188   0.0000   0.0000   0.0000   0.2530
   3.700   0.4300   0.01229   0.00399  -0.0022  0.2057  1.0000  -1.8876   0.0000   0.0000   0.0000   0.2522
   3.800   0.4392   0.01254   0.00412  -0.0020  0.1800  1.0000  -1.9571   0.0000   0.0000   0.0000   0.2514
   3.900   0.4483   0.01279   0.00427  -0.0017  0.1566  1.0000  -2.0271   0.0000   0.0000   0.0000   0.2506
   4.000   0.4576   0.01305   0.00443  -0.0014  0.1363  1.0000  -2.0975   0.0000   0.0000   0.0000   0.2499
   4.100   0.4668   0.01330   0.00459  -0.0012  0.1189  1.0000  -2.1683   0.0000   0.0000   0.0000   0.2493
   4.200   0.4762   0.01354   0.00477  -0.0009  0.1043  1.0000  -2.2395   0.0000   0.0000   0.0000   0.2486
   4.300   0.4855   0.01380   0.00496  -0.0006  0.0926  1.0000  -2.3108   0.0000   0.0000   0.0000   0.2480
   4.400   0.4950   0.01403   0.00517  -0.0004  0.0830  1.0000  -2.3825   0.0000   0.0000   0.0000   0.2473
   4.500   0.5044   0.01427   0.00538  -0.0001  0.0751  1.0000  -2.4542   0.0000   0.0000   0.0000   0.2467
   4.600   0.5139   0.01451   0.00560   0.0002  0.0687  1.0000  -2.5318   0.0000   0.0000   0.0000   0.2461
   4.700   0.5234   0.01476   0.00582   0.0004  0.0634  1.0000  -2.6142   0.0000   0.0000   0.0000   0.2456
   4.800   0.5329   0.01500   0.00605   0.0007  0.0588  1.0000  -2.6976   0.0000   0.0000   0.0000   0.2450
   4.900   0.5424   0.01524   0.00630   0.0010  0.0547  1.0000  -2.7802   0.0000   0.0000   0.0000   0.2445
   5.000   0.5518   0.01551   0.00655   0.0013  0.0517  1.0000  -2.8638   0.0000   0.0000   0.0000   0.2439
   5.100   0.5614   0.01575   0.00682   0.0015  0.0486  1.0000  -2.9459   0.0000   0.0000   0.0000   0.2434
   5.200   0.5707   0.01603   0.00707   0.0018  0.0461  1.0000  -3.0319   0.0000   0.0000   0.0000   0.2429
   5.300   0.5803   0.01627   0.00738   0.0021  0.0434  1.0000  -3.1147   0.0000   0.0000   0.0000   0.2424
   5.400   0.5896   0.01654   0.00764   0.0024  0.0414  1.0000  -3.2020   0.0000   0.0000   0.0000   0.2419
   5.500   0.5990   0.01685   0.00797   0.0027  0.0397  1.0000  -3.2828   0.0000   0.0000   0.0000   0.2414
   5.600   0.6083   0.01715   0.00831   0.0030  0.0381  1.0000  -3.3634   0.0000   0.0000   0.0000   0.2409
   5.700   0.6176   0.01745   0.00861   0.0033  0.0366  1.0000  -3.4492   0.0000   0.0000   0.0000   0.2404
   5.800   0.6268   0.01778   0.00894   0.0035  0.0353  1.0000  -3.5347   0.0000   0.0000   0.0000   0.2400
   5.900   0.6362   0.01808   0.00930   0.0038  0.0337  1.0000  -3.6160   0.0000   0.0000   0.0000   0.2395
   6.000   0.6456   0.01838   0.00962   0.0041  0.0322  1.0000  -3.7044   0.0000   0.0000   0.0000   0.2391
   6.100   0.6547   0.01871   0.00993   0.0044  0.0312  1.0000  -3.7954   0.0000   0.0000   0.0000   0.2387
   6.200   0.6638   0.01911   0.01038   0.0047  0.0303  1.0000  -3.8727   0.0000   0.0000   0.0000   0.2383
   6.300   0.6730   0.01952   0.01086   0.0051  0.0294  1.0000  -3.9458   0.0000   0.0000   0.0000   0.2378
   6.400   0.6822   0.01993   0.01132   0.0054  0.0286  1.0000  -4.0311   0.0000   0.0000   0.0000   0.2373
   6.500   0.6914   0.02033   0.01175   0.0057  0.0278  1.0000  -4.1271   0.0000   0.0000   0.0000   0.2369
   6.600   0.7005   0.02071   0.01214   0.0060  0.0271  1.0000  -4.2303   0.0000   0.0000   0.0000   0.2365
   6.700   0.7093   0.02116   0.01255   0.0062  0.0264  1.0000  -4.3362   0.0000   0.0000   0.0000   0.2362
   6.800   0.7187   0.02161   0.01312   0.0066  0.0255  1.0000  -4.4211   0.0000   0.0000   0.0000   0.2357
   6.900   0.7279   0.02204   0.01364   0.0069  0.0245  1.0000  -4.5148   0.0000   0.0000   0.0000   0.2354
   7.000   0.7371   0.02245   0.01411   0.0071  0.0237  1.0000  -4.6161   0.0000   0.0000   0.0000   0.2350
   7.100   0.7462   0.02288   0.01457   0.0074  0.0231  1.0000  -4.7188   0.0000   0.0000   0.0000   0.2347
   7.200   0.7550   0.02336   0.01509   0.0077  0.0227  1.0000  -4.8204   0.0000   0.0000   0.0000   0.2344
   7.300   0.7637   0.02391   0.01564   0.0079  0.0223  1.0000  -4.9213   0.0000   0.0000   0.0000   0.2341
   7.400   0.7724   0.02460   0.01645   0.0083  0.0219  1.0000  -4.9935   0.0000   0.0000   0.0000   0.2336
   7.500   0.7811   0.02536   0.01736   0.0087  0.0215  1.0000  -5.0579   0.0000   0.0000   0.0000   0.2331
   7.600   0.7896   0.02616   0.01830   0.0091  0.0211  1.0000  -5.1215   0.0000   0.0000   0.0000   0.2326
   7.700   0.7978   0.02698   0.01926   0.0096  0.0207  1.0000  -5.1848   0.0000   0.0000   0.0000   0.2322
   7.800   0.8060   0.02777   0.02019   0.0099  0.0203  1.0000  -5.2530   0.0000   0.0000   0.0000   0.2317
   7.900   0.8140   0.02847   0.02100   0.0103  0.0199  1.0000  -5.3332   0.0000   0.0000   0.0000   0.2314
   8.000   0.8221   0.02906   0.02168   0.0106  0.0195  1.0000  -5.4266   0.0000   0.0000   0.0000   0.2310
   8.100   0.8302   0.02957   0.02223   0.0108  0.0191  1.0000  -5.5343   0.0000   0.0000   0.0000   0.2308
   8.200   0.8382   0.03006   0.02274   0.0110  0.0187  1.0000  -5.6514   0.0000   0.0000   0.0000   0.2305
   8.300   0.8452   0.03091   0.02372   0.0114  0.0183  1.0000  -5.7253   0.0000   0.0000   0.0000   0.2301
   8.400   0.8508   0.03225   0.02538   0.0120  0.0178  1.0000  -5.7288   0.0000   0.0000   0.0000   0.2294
   8.500   0.8561   0.03358   0.02696   0.0126  0.0174  1.0000  -5.7432   0.0000   0.0000   0.0000   0.2288
   8.600   0.8608   0.03498   0.02858   0.0131  0.0172  1.0000  -5.7534   0.0000   0.0000   0.0000   0.2282
   8.700   0.8649   0.03645   0.03027   0.0137  0.0170  1.0000  -5.7585   0.0000   0.0000   0.0000   0.2276
   8.800   0.8682   0.03798   0.03202   0.0142  0.0168  1.0000  -5.7582   0.0000   0.0000   0.0000   0.2270
   8.900   0.8708   0.03958   0.03383   0.0147  0.0166  1.0000  -5.7519   0.0000   0.0000   0.0000   0.2264
   9.000   0.8725   0.04126   0.03572   0.0152  0.0165  1.0000  -5.7387   0.0000   0.0000   0.0000   0.2258
   9.100   0.8733   0.04303   0.03768   0.0157  0.0164  1.0000  -5.7177   0.0000   0.0000   0.0000   0.2252
   9.200   0.8730   0.04489   0.03973   0.0161  0.0163  1.0000  -5.6875   0.0000   0.0000   0.0000   0.2246
   9.300   0.8715   0.04686   0.04189   0.0165  0.0162  1.0000  -5.6468   0.0000   0.0000   0.0000   0.2241
   9.400   0.8687   0.04894   0.04415   0.0168  0.0162  1.0000  -5.5941   0.0000   0.0000   0.0000   0.2237
   9.500   0.8642   0.05116   0.04654   0.0169  0.0161  1.0000  -5.5283   0.0000   0.0000   0.0000   0.2233
   9.600   0.8581   0.05351   0.04905   0.0170  0.0161  1.0000  -5.4488   0.0000   0.0000   0.0000   0.2231
   9.700   0.8503   0.05600   0.05168   0.0168  0.0162  1.0000  -5.3565   0.0000   0.0000   0.0000   0.2231
   9.800   0.8403   0.05840   0.05420   0.0166  0.0162  1.0000  -5.2595   0.0000   0.0000   0.0000   0.2230
   9.900   0.8291   0.06101   0.05691   0.0158  0.0163  1.0000  -5.1537   0.0000   0.0000   0.0000   0.2235
  10.000   0.8170   0.06416   0.06015   0.0138  0.0164  1.0000  -5.0296   0.0000   0.0000   0.0000   0.2256
  10.100   0.8039   0.06834   0.06441   0.0100  0.0166  1.0000  -4.8696   0.0000   0.0000   0.0000   0.2300
  10.200   0.7876   0.07527   0.07141   0.0031  0.0169  1.0000  -4.5937   0.0000   0.0000   0.0000   0.2384
  10.300   0.7721   0.08376   0.07990  -0.0034  0.0172  1.0000  -4.2367   0.0000   0.0000   0.0000   0.2469
  10.400   0.7640   0.08831   0.08443  -0.0064  0.0174  1.0000  -4.0718   0.0000   0.0000   0.0000   0.2509
  10.500   0.7577   0.09209   0.08818  -0.0088  0.0175  1.0000  -3.9449   0.0000   0.0000   0.0000   0.2540
  10.600   0.7523   0.09548   0.09155  -0.0107  0.0176  1.0000  -3.8373   0.0000   0.0000   0.0000   0.2567
  10.700   0.7476   0.09862   0.09467  -0.0125  0.0176  1.0000  -3.7421   0.0000   0.0000   0.0000   0.2591
  10.800   0.7436   0.10157   0.09760  -0.0140  0.0177  1.0000  -3.6564   0.0000   0.0000   0.0000   0.2613
  10.900   0.7401   0.10438   0.10039  -0.0155  0.0177  1.0000  -3.5782   0.0000   0.0000   0.0000   0.2632
  11.000   0.7370   0.10707   0.10307  -0.0168  0.0178  1.0000  -3.5062   0.0000   0.0000   0.0000   0.2651
  11.100   0.7343   0.10966   0.10565  -0.0181  0.0178  1.0000  -3.4397   0.0000   0.0000   0.0000   0.2668
  11.200   0.7320   0.11216   0.10813  -0.0192  0.0179  1.0000  -3.3781   0.0000   0.0000   0.0000   0.2685
  11.300   0.7300   0.11458   0.11054  -0.0204  0.0179  1.0000  -3.3209   0.0000   0.0000   0.0000   0.2700
  11.400   0.7283   0.11693   0.11288  -0.0214  0.0180  1.0000  -3.2706   0.0000   0.0000   0.0000   0.2715
  11.500   0.7269   0.11923   0.11517  -0.0224  0.0180  1.0000  -3.2272   0.0000   0.0000   0.0000   0.2729
  11.600   0.7257   0.12146   0.11739  -0.0234  0.0181  1.0000  -3.1880   0.0000   0.0000   0.0000   0.2742
  11.700   0.7248   0.12362   0.11954  -0.0243  0.0181  1.0000  -3.1530   0.0000   0.0000   0.0000   0.2754
  11.800   0.7241   0.12573   0.12164  -0.0252  0.0182  1.0000  -3.1222   0.0000   0.0000   0.0000   0.2766
  11.900   0.7237   0.12777   0.12367  -0.0260  0.0182  1.0000  -3.0957   0.0000   0.0000   0.0000   0.2777
  12.000   0.7236   0.12974   0.12564  -0.0268  0.0183  1.0000  -3.0738   0.0000   0.0000   0.0000   0.2787
  12.100   0.7237   0.13165   0.12754  -0.0275  0.0183  1.0000  -3.0570   0.0000   0.0000   0.0000   0.2796
  12.200   0.7241   0.13349   0.12937  -0.0282  0.0184  1.0000  -3.0456   0.0000   0.0000   0.0000   0.2805
  12.300   0.7247   0.13524   0.13112  -0.0288  0.0184  1.0000  -3.0400   0.0000   0.0000   0.0000   0.2812
  12.400   0.7255   0.13692   0.13280  -0.0294  0.0185  1.0000  -3.0407   0.0000   0.0000   0.0000   0.2819
  12.600   0.7148   0.14582   0.14166  -0.0338  0.0201  1.0000  -2.5679   0.0000   0.0000   0.0000   0.2889
  12.700   0.7152   0.14782   0.14366  -0.0347  0.0203  1.0000  -2.5374   0.0000   0.0000   0.0000   0.2900
  12.800   0.7157   0.14975   0.14558  -0.0355  0.0203  1.0000  -2.5114   0.0000   0.0000   0.0000   0.2910
  12.900   0.7165   0.15163   0.14745  -0.0363  0.0203  1.0000  -2.4890   0.0000   0.0000   0.0000   0.2920
  13.000   0.7173   0.15345   0.14927  -0.0371  0.0202  1.0000  -2.4701   0.0000   0.0000   0.0000   0.2930
  13.100   0.7184   0.15521   0.15103  -0.0379  0.0201  1.0000  -2.4556   0.0000   0.0000   0.0000   0.2939
  13.200   0.7197   0.15690   0.15271  -0.0386  0.0199  1.0000  -2.4475   0.0000   0.0000   0.0000   0.2947
  13.300   0.7213   0.15846   0.15428  -0.0393  0.0196  1.0000  -2.4492   0.0000   0.0000   0.0000   0.2954
  13.400   0.7237   0.15973   0.15554  -0.0397  0.0192  1.0000  -2.4798   0.0000   0.0000   0.0000   0.2958
  13.500   0.7285   0.16002   0.15583  -0.0394  0.0182  1.0000  -2.6104   0.0000   0.0000   0.0000   0.2948
  13.600   0.7291   0.16201   0.15782  -0.0404  0.0182  1.0000  -2.5722   0.0000   0.0000   0.0000   0.2960
  13.700   0.7304   0.16381   0.15961  -0.0412  0.0182  1.0000  -2.5519   0.0000   0.0000   0.0000   0.2969
  13.800   0.7327   0.16533   0.16113  -0.0417  0.0183  1.0000  -2.5612   0.0000   0.0000   0.0000   0.2973
  13.900   0.7358   0.16656   0.16236  -0.0418  0.0184  1.0000  -2.6007   0.0000   0.0000   0.0000   0.2972
  14.400   0.7461   0.17769   0.17350  -0.0445  0.0264  1.0000  -2.3628   0.0000   0.0000   0.0000   0.2998
  14.500   0.7480   0.17941   0.17522  -0.0453  0.0264  1.0000  -2.3482   0.0000   0.0000   0.0000   0.3006
  14.600   0.7499   0.18113   0.17695  -0.0461  0.0264  1.0000  -2.3310   0.0000   0.0000   0.0000   0.3014
  14.700   0.7516   0.18284   0.17865  -0.0470  0.0264  1.0000  -2.3114   0.0000   0.0000   0.0000   0.3023
  14.800   0.7533   0.18455   0.18035  -0.0479  0.0264  1.0000  -2.2900   0.0000   0.0000   0.0000   0.3033
  14.900   0.7549   0.18624   0.18204  -0.0488  0.0264  1.0000  -2.2673   0.0000   0.0000   0.0000   0.3043
  15.000   0.7566   0.18793   0.18373  -0.0497  0.0264  1.0000  -2.2433   0.0000   0.0000   0.0000   0.3053


