xflr5 v6.59

 Calculated polar for: NACA 0008

 1 1 Reynolds number fixed          Mach number fixed         

 xtrf =   1.000 (top)        1.000 (bottom)
 Mach =   0.050     Re =     0.100 e 6     Ncrit =   5.000

  alpha     CL        CD       CDp       Cm    Top Xtr Bot Xtr   Cpmin    Chinge    XCp    
 ------- -------- --------- --------- -------- ------- ------- -------- --------- ---------
  -3.000  -0.3710   0.01228   0.00437   0.0051  1.0000  0.5537  -1.4356   0.0000   0.0000   0.0000   0.2612
  -2.900  -0.3622   0.01212   0.00432   0.0057  1.0000  0.5844  -1.3786   0.0000   0.0000   0.0000   0.2633
  -2.800  -0.3533   0.01197   0.00427   0.0063  1.0000  0.6140  -1.3219   0.0000   0.0000   0.0000   0.2654
  -2.700  -0.3442   0.01183   0.00424   0.0070  1.0000  0.6428  -1.2654   0.0000   0.0000   0.0000   0.2678
  -2.600  -0.3350   0.01171   0.00421   0.0076  1.0000  0.6706  -1.2113   0.0000   0.0000   0.0000   0.2702
  -2.500  -0.3257   0.01160   0.00419   0.0082  1.0000  0.6973  -1.1610   0.0000   0.0000   0.0000   0.2729
  -2.400  -0.3166   0.01152   0.00415   0.0089  1.0000  0.7227  -1.1115   0.0000   0.0000   0.0000   0.2758
  -2.300  -0.3072   0.01144   0.00414   0.0095  1.0000  0.7473  -1.0621   0.0000   0.0000   0.0000   0.2788
  -2.200  -0.2976   0.01139   0.00413   0.0102  1.0000  0.7707  -1.0126   0.0000   0.0000   0.0000   0.2820
  -2.100  -0.2877   0.01135   0.00414   0.0107  1.0000  0.7929  -0.9627   0.0000   0.0000   0.0000   0.2852
  -2.000  -0.2774   0.01132   0.00413   0.0112  1.0000  0.8143  -0.9177   0.0000   0.0000   0.0000   0.2883
  -1.900  -0.2662   0.01130   0.00414   0.0115  1.0000  0.8340  -0.8712   0.0000   0.0000   0.0000   0.2912
  -1.800  -0.2547   0.01129   0.00414   0.0117  1.0000  0.8531  -0.8248   0.0000   0.0000   0.0000   0.2940
  -1.700  -0.2418   0.01130   0.00415   0.0117  1.0000  0.8703  -0.7775   0.0000   0.0000   0.0000   0.2961
  -1.600  -0.2283   0.01131   0.00415   0.0114  1.0000  0.8866  -0.7329   0.0000   0.0000   0.0000   0.2979
  -1.500  -0.2144   0.01132   0.00413   0.0110  1.0000  0.9018  -0.6882   0.0000   0.0000   0.0000   0.2994
  -1.400  -0.1991   0.01133   0.00412   0.0103  1.0000  0.9152  -0.6446   0.0000   0.0000   0.0000   0.2999
  -1.300  -0.1831   0.01135   0.00411   0.0095  1.0000  0.9275  -0.6016   0.0000   0.0000   0.0000   0.2996
  -1.200  -0.1667   0.01136   0.00409   0.0084  1.0000  0.9388  -0.5614   0.0000   0.0000   0.0000   0.2986
  -1.100  -0.1498   0.01137   0.00408   0.0073  1.0000  0.9493  -0.5228   0.0000   0.0000   0.0000   0.2967
  -1.000  -0.1326   0.01137   0.00405   0.0060  1.0000  0.9589  -0.4863   0.0000   0.0000   0.0000   0.2936
  -0.900  -0.1149   0.01137   0.00403   0.0047  1.0000  0.9677  -0.4523   0.0000   0.0000   0.0000   0.2886
  -0.800  -0.0966   0.01137   0.00400   0.0032  1.0000  0.9757  -0.4206   0.0000   0.0000   0.0000   0.2805
  -0.700  -0.0775   0.01137   0.00397   0.0014  1.0000  0.9827  -0.3908   0.0000   0.0000   0.0000   0.2662
  -0.600  -0.0583   0.01135   0.00393  -0.0004  1.0000  0.9891  -0.3634   0.0000   0.0000   0.0000   0.2414
  -0.500  -0.0389   0.01133   0.00390  -0.0022  1.0000  0.9952  -0.3386   0.0000   0.0000   0.0000   0.1911
  -0.400  -0.0219   0.01131   0.00386  -0.0036  1.0000  1.0000  -0.3178   0.0000   0.0000   0.0000   0.0829
  -0.300  -0.0164   0.01128   0.00383  -0.0027  1.0000  1.0000  -0.3072   0.0000   0.0000   0.0000   0.0819
  -0.200  -0.0110   0.01126   0.00382  -0.0018  1.0000  1.0000  -0.2972   0.0000   0.0000   0.0000   0.0825
  -0.100  -0.0055   0.01125   0.00380  -0.0009  1.0000  1.0000  -0.2877   0.0000   0.0000   0.0000   0.0844
   0.000   0.0000   0.01125   0.00380  -0.0000  1.0000  1.0000  -0.2786   0.0000   0.0000   0.0000   0.4177
   0.100   0.0055   0.01125   0.00380   0.0009  1.0000  1.0000  -0.2877   0.0000   0.0000   0.0000   0.0844
   0.200   0.0110   0.01126   0.00382   0.0018  1.0000  1.0000  -0.2972   0.0000   0.0000   0.0000   0.0826
   0.300   0.0164   0.01128   0.00383   0.0027  1.0000  1.0000  -0.3072   0.0000   0.0000   0.0000   0.0819
   0.400   0.0219   0.01131   0.00386   0.0036  1.0000  1.0000  -0.3178   0.0000   0.0000   0.0000   0.0829
   0.500   0.0389   0.01133   0.00390   0.0022  0.9951  1.0000  -0.3386   0.0000   0.0000   0.0000   0.1910
   0.600   0.0583   0.01135   0.00393   0.0004  0.9891  1.0000  -0.3634   0.0000   0.0000   0.0000   0.2414
   0.700   0.0775   0.01137   0.00397  -0.0014  0.9826  1.0000  -0.3908   0.0000   0.0000   0.0000   0.2662
   0.800   0.0966   0.01137   0.00400  -0.0032  0.9756  1.0000  -0.4206   0.0000   0.0000   0.0000   0.2805
   0.900   0.1148   0.01137   0.00403  -0.0047  0.9677  1.0000  -0.4523   0.0000   0.0000   0.0000   0.2886
   1.000   0.1325   0.01137   0.00405  -0.0060  0.9589  1.0000  -0.4863   0.0000   0.0000   0.0000   0.2936
   1.100   0.1498   0.01137   0.00408  -0.0073  0.9493  1.0000  -0.5228   0.0000   0.0000   0.0000   0.2967
   1.200   0.1667   0.01136   0.00409  -0.0084  0.9388  1.0000  -0.5614   0.0000   0.0000   0.0000   0.2986
   1.300   0.1831   0.01135   0.00411  -0.0095  0.9275  1.0000  -0.6016   0.0000   0.0000   0.0000   0.2996
   1.400   0.1991   0.01133   0.00412  -0.0103  0.9152  1.0000  -0.6446   0.0000   0.0000   0.0000   0.2999
   1.500   0.2144   0.01132   0.00413  -0.0110  0.9018  1.0000  -0.6882   0.0000   0.0000   0.0000   0.2994
   1.600   0.2283   0.01131   0.00415  -0.0114  0.8865  1.0000  -0.7328   0.0000   0.0000   0.0000   0.2979
   1.700   0.2417   0.01130   0.00415  -0.0116  0.8703  1.0000  -0.7775   0.0000   0.0000   0.0000   0.2961
   1.800   0.2547   0.01129   0.00414  -0.0117  0.8531  1.0000  -0.8248   0.0000   0.0000   0.0000   0.2940
   1.900   0.2662   0.01130   0.00414  -0.0115  0.8340  1.0000  -0.8711   0.0000   0.0000   0.0000   0.2912
   2.000   0.2774   0.01132   0.00413  -0.0112  0.8143  1.0000  -0.9177   0.0000   0.0000   0.0000   0.2883
   2.100   0.2876   0.01135   0.00414  -0.0107  0.7929  1.0000  -0.9627   0.0000   0.0000   0.0000   0.2851
   2.200   0.2976   0.01139   0.00413  -0.0102  0.7708  1.0000  -1.0125   0.0000   0.0000   0.0000   0.2820
   2.300   0.3072   0.01144   0.00414  -0.0095  0.7473  1.0000  -1.0620   0.0000   0.0000   0.0000   0.2788
   2.400   0.3165   0.01152   0.00415  -0.0089  0.7228  1.0000  -1.1114   0.0000   0.0000   0.0000   0.2758
   2.500   0.3257   0.01160   0.00419  -0.0082  0.6973  1.0000  -1.1610   0.0000   0.0000   0.0000   0.2729
   2.600   0.3350   0.01171   0.00421  -0.0076  0.6706  1.0000  -1.2113   0.0000   0.0000   0.0000   0.2702
   2.700   0.3442   0.01183   0.00424  -0.0070  0.6429  1.0000  -1.2654   0.0000   0.0000   0.0000   0.2678
   2.800   0.3532   0.01197   0.00427  -0.0063  0.6141  1.0000  -1.3219   0.0000   0.0000   0.0000   0.2654
   2.900   0.3622   0.01212   0.00432  -0.0057  0.5844  1.0000  -1.3786   0.0000   0.0000   0.0000   0.2633
   3.000   0.3710   0.01228   0.00437  -0.0051  0.5538  1.0000  -1.4356   0.0000   0.0000   0.0000   0.2612
   3.100   0.3798   0.01247   0.00444  -0.0046  0.5222  1.0000  -1.4929   0.0000   0.0000   0.0000   0.2593
   3.200   0.3886   0.01266   0.00451  -0.0040  0.4898  1.0000  -1.5505   0.0000   0.0000   0.0000   0.2576
   3.300   0.3972   0.01288   0.00459  -0.0035  0.4567  1.0000  -1.6083   0.0000   0.0000   0.0000   0.2560
   3.400   0.4060   0.01310   0.00470  -0.0030  0.4223  1.0000  -1.6666   0.0000   0.0000   0.0000   0.2545
   3.500   0.4146   0.01335   0.00480  -0.0025  0.3877  1.0000  -1.7301   0.0000   0.0000   0.0000   0.2532
   3.600   0.4234   0.01361   0.00491  -0.0021  0.3519  1.0000  -1.7963   0.0000   0.0000   0.0000   0.2520
   3.700   0.4321   0.01389   0.00504  -0.0017  0.3162  1.0000  -1.8629   0.0000   0.0000   0.0000   0.2509
   3.800   0.4408   0.01419   0.00519  -0.0013  0.2806  1.0000  -1.9296   0.0000   0.0000   0.0000   0.2500
   3.900   0.4495   0.01451   0.00534  -0.0010  0.2458  1.0000  -1.9966   0.0000   0.0000   0.0000   0.2491
   4.000   0.4583   0.01484   0.00552  -0.0007  0.2128  1.0000  -2.0636   0.0000   0.0000   0.0000   0.2483
   4.100   0.4670   0.01519   0.00572  -0.0004  0.1831  1.0000  -2.1306   0.0000   0.0000   0.0000   0.2476
   4.200   0.4759   0.01554   0.00594  -0.0001  0.1572  1.0000  -2.1975   0.0000   0.0000   0.0000   0.2469
   4.300   0.4848   0.01589   0.00617   0.0002  0.1363  1.0000  -2.2640   0.0000   0.0000   0.0000   0.2462
   4.400   0.4938   0.01624   0.00645   0.0005  0.1195  1.0000  -2.3303   0.0000   0.0000   0.0000   0.2455
   4.500   0.5029   0.01658   0.00672   0.0008  0.1066  1.0000  -2.3961   0.0000   0.0000   0.0000   0.2449
   4.600   0.5120   0.01692   0.00701   0.0011  0.0960  1.0000  -2.4618   0.0000   0.0000   0.0000   0.2442
   4.700   0.5211   0.01726   0.00731   0.0015  0.0877  1.0000  -2.5347   0.0000   0.0000   0.0000   0.2436
   4.800   0.5302   0.01760   0.00763   0.0018  0.0808  1.0000  -2.6099   0.0000   0.0000   0.0000   0.2430
   4.900   0.5393   0.01794   0.00795   0.0021  0.0750  1.0000  -2.6854   0.0000   0.0000   0.0000   0.2424
   5.000   0.5483   0.01829   0.00828   0.0024  0.0704  1.0000  -2.7614   0.0000   0.0000   0.0000   0.2418
   5.100   0.5575   0.01863   0.00863   0.0028  0.0660  1.0000  -2.8361   0.0000   0.0000   0.0000   0.2412
   5.200   0.5666   0.01898   0.00899   0.0031  0.0623  1.0000  -2.9114   0.0000   0.0000   0.0000   0.2406
   5.300   0.5756   0.01933   0.00934   0.0034  0.0589  1.0000  -2.9893   0.0000   0.0000   0.0000   0.2401
   5.400   0.5847   0.01971   0.00977   0.0038  0.0562  1.0000  -3.0614   0.0000   0.0000   0.0000   0.2395
   5.500   0.5937   0.02009   0.01017   0.0041  0.0537  1.0000  -3.1350   0.0000   0.0000   0.0000   0.2389
   5.600   0.6026   0.02050   0.01055   0.0045  0.0516  1.0000  -3.2122   0.0000   0.0000   0.0000   0.2384
   5.700   0.6118   0.02089   0.01101   0.0048  0.0491  1.0000  -3.2835   0.0000   0.0000   0.0000   0.2379
   5.800   0.6208   0.02127   0.01138   0.0051  0.0470  1.0000  -3.3645   0.0000   0.0000   0.0000   0.2374
   5.900   0.6298   0.02172   0.01185   0.0055  0.0453  1.0000  -3.4367   0.0000   0.0000   0.0000   0.2369
   6.000   0.6390   0.02221   0.01241   0.0058  0.0438  1.0000  -3.5016   0.0000   0.0000   0.0000   0.2364
   6.100   0.6480   0.02269   0.01292   0.0062  0.0425  1.0000  -3.5720   0.0000   0.0000   0.0000   0.2359
   6.200   0.6570   0.02316   0.01336   0.0065  0.0413  1.0000  -3.6510   0.0000   0.0000   0.0000   0.2355
   6.400   0.6755   0.02420   0.01458   0.0072  0.0383  1.0000  -3.7852   0.0000   0.0000   0.0000   0.2347
   6.500   0.6846   0.02466   0.01507   0.0074  0.0369  1.0000  -3.8779   0.0000   0.0000   0.0000   0.2343
   6.600   0.6934   0.02514   0.01553   0.0077  0.0359  1.0000  -3.9763   0.0000   0.0000   0.0000   0.2341
   6.700   0.7026   0.02582   0.01631   0.0080  0.0351  1.0000  -4.0471   0.0000   0.0000   0.0000   0.2336
   6.800   0.7118   0.02657   0.01719   0.0084  0.0343  1.0000  -4.1103   0.0000   0.0000   0.0000   0.2331
   6.900   0.7208   0.02733   0.01807   0.0088  0.0335  1.0000  -4.1762   0.0000   0.0000   0.0000   0.2327
   7.000   0.7298   0.02807   0.01891   0.0091  0.0328  1.0000  -4.2460   0.0000   0.0000   0.0000   0.2323
   7.100   0.7385   0.02874   0.01965   0.0094  0.0321  1.0000  -4.3256   0.0000   0.0000   0.0000   0.2320
   7.200   0.7471   0.02932   0.02026   0.0097  0.0314  1.0000  -4.4184   0.0000   0.0000   0.0000   0.2317
   7.300   0.7555   0.03005   0.02104   0.0100  0.0307  1.0000  -4.5007   0.0000   0.0000   0.0000   0.2314
   7.400   0.7635   0.03107   0.02237   0.0105  0.0297  1.0000  -4.5351   0.0000   0.0000   0.0000   0.2308
   7.500   0.7713   0.03198   0.02346   0.0109  0.0288  1.0000  -4.5891   0.0000   0.0000   0.0000   0.2304
   7.600   0.7790   0.03281   0.02443   0.0112  0.0281  1.0000  -4.6545   0.0000   0.0000   0.0000   0.2300
   7.700   0.7866   0.03370   0.02543   0.0116  0.0276  1.0000  -4.7178   0.0000   0.0000   0.0000   0.2296
   7.800   0.7940   0.03460   0.02644   0.0119  0.0272  1.0000  -4.7817   0.0000   0.0000   0.0000   0.2292
   7.900   0.8012   0.03551   0.02745   0.0123  0.0269  1.0000  -4.8472   0.0000   0.0000   0.0000   0.2289
   8.000   0.8081   0.03645   0.02848   0.0126  0.0266  1.0000  -4.9135   0.0000   0.0000   0.0000   0.2285
   8.100   0.8143   0.03760   0.02974   0.0130  0.0264  1.0000  -4.9602   0.0000   0.0000   0.0000   0.2281
   8.200   0.8186   0.03922   0.03165   0.0135  0.0262  1.0000  -4.9480   0.0000   0.0000   0.0000   0.2274
   8.300   0.8223   0.04090   0.03362   0.0141  0.0260  1.0000  -4.9321   0.0000   0.0000   0.0000   0.2268
   8.400   0.8252   0.04265   0.03563   0.0146  0.0258  1.0000  -4.9124   0.0000   0.0000   0.0000   0.2262
   8.500   0.8273   0.04448   0.03770   0.0151  0.0257  1.0000  -4.8872   0.0000   0.0000   0.0000   0.2256
   8.600   0.8281   0.04643   0.03990   0.0156  0.0255  1.0000  -4.8505   0.0000   0.0000   0.0000   0.2250
   8.700   0.8280   0.04845   0.04216   0.0160  0.0254  1.0000  -4.8085   0.0000   0.0000   0.0000   0.2245
   8.800   0.8269   0.05051   0.04444   0.0163  0.0252  1.0000  -4.7638   0.0000   0.0000   0.0000   0.2241
   8.900   0.8250   0.05260   0.04672   0.0165  0.0250  1.0000  -4.7171   0.0000   0.0000   0.0000   0.2238
   9.000   0.8222   0.05472   0.04901   0.0165  0.0249  1.0000  -4.6684   0.0000   0.0000   0.0000   0.2235
   9.100   0.8186   0.05687   0.05131   0.0165  0.0248  1.0000  -4.6169   0.0000   0.0000   0.0000   0.2234
   9.200   0.8140   0.05905   0.05364   0.0163  0.0247  1.0000  -4.5616   0.0000   0.0000   0.0000   0.2235
   9.300   0.8083   0.06129   0.05599   0.0160  0.0247  1.0000  -4.5015   0.0000   0.0000   0.0000   0.2237
   9.400   0.8017   0.06358   0.05839   0.0154  0.0247  1.0000  -4.4365   0.0000   0.0000   0.0000   0.2241
   9.500   0.7936   0.06576   0.06064   0.0150  0.0248  1.0000  -4.3708   0.0000   0.0000   0.0000   0.2245
   9.600   0.7852   0.06813   0.06308   0.0139  0.0249  1.0000  -4.3006   0.0000   0.0000   0.0000   0.2255
   9.700   0.7769   0.07080   0.06579   0.0121  0.0251  1.0000  -4.2250   0.0000   0.0000   0.0000   0.2276
   9.800   0.7691   0.07382   0.06886   0.0095  0.0253  1.0000  -4.1432   0.0000   0.0000   0.0000   0.2307
   9.900   0.7622   0.07724   0.07230   0.0063  0.0255  1.0000  -4.0546   0.0000   0.0000   0.0000   0.2347
  10.000   0.7563   0.08099   0.07606   0.0029  0.0258  1.0000  -3.9590   0.0000   0.0000   0.0000   0.2390
  10.100   0.7515   0.08489   0.07997  -0.0002  0.0259  1.0000  -3.8572   0.0000   0.0000   0.0000   0.2431
  10.200   0.7473   0.08842   0.08348  -0.0026  0.0261  1.0000  -3.7671   0.0000   0.0000   0.0000   0.2463
  10.300   0.7436   0.09164   0.08668  -0.0047  0.0261  1.0000  -3.6872   0.0000   0.0000   0.0000   0.2491
  10.400   0.7401   0.09466   0.08969  -0.0066  0.0262  1.0000  -3.6134   0.0000   0.0000   0.0000   0.2516
  10.500   0.7369   0.09756   0.09257  -0.0082  0.0262  1.0000  -3.5436   0.0000   0.0000   0.0000   0.2539
  10.600   0.7338   0.10036   0.09536  -0.0098  0.0263  1.0000  -3.4761   0.0000   0.0000   0.0000   0.2560
  10.700   0.7310   0.10310   0.09808  -0.0113  0.0263  1.0000  -3.4106   0.0000   0.0000   0.0000   0.2580
  10.800   0.7283   0.10578   0.10074  -0.0127  0.0263  1.0000  -3.3463   0.0000   0.0000   0.0000   0.2600
  10.900   0.7258   0.10842   0.10337  -0.0141  0.0263  1.0000  -3.2827   0.0000   0.0000   0.0000   0.2619
  11.000   0.7235   0.11103   0.10595  -0.0154  0.0263  1.0000  -3.2201   0.0000   0.0000   0.0000   0.2638
  11.100   0.7213   0.11358   0.10849  -0.0167  0.0263  1.0000  -3.1590   0.0000   0.0000   0.0000   0.2656
  11.200   0.7193   0.11609   0.11098  -0.0180  0.0263  1.0000  -3.0998   0.0000   0.0000   0.0000   0.2673
  11.300   0.7176   0.11854   0.11341  -0.0192  0.0262  1.0000  -3.0429   0.0000   0.0000   0.0000   0.2690
  11.400   0.7162   0.12093   0.11579  -0.0203  0.0262  1.0000  -2.9891   0.0000   0.0000   0.0000   0.2706
  11.500   0.7150   0.12325   0.11810  -0.0214  0.0262  1.0000  -2.9392   0.0000   0.0000   0.0000   0.2721
  11.600   0.7141   0.12549   0.12033  -0.0224  0.0262  1.0000  -2.8940   0.0000   0.0000   0.0000   0.2735
  11.700   0.7135   0.12764   0.12246  -0.0233  0.0262  1.0000  -2.8581   0.0000   0.0000   0.0000   0.2748
  11.800   0.7134   0.12966   0.12447  -0.0242  0.0262  1.0000  -2.8341   0.0000   0.0000   0.0000   0.2759
  11.900   0.7139   0.13151   0.12631  -0.0249  0.0263  1.0000  -2.8230   0.0000   0.0000   0.0000   0.2768
  12.000   0.7147   0.13324   0.12805  -0.0254  0.0264  1.0000  -2.8208   0.0000   0.0000   0.0000   0.2775
  12.300   0.7066   0.14263   0.13739  -0.0305  0.0285  1.0000  -2.4713   0.0000   0.0000   0.0000   0.2850
  12.400   0.7070   0.14464   0.13939  -0.0313  0.0288  1.0000  -2.4426   0.0000   0.0000   0.0000   0.2861
  12.500   0.7078   0.14655   0.14129  -0.0320  0.0292  1.0000  -2.4217   0.0000   0.0000   0.0000   0.2870
  12.600   0.7090   0.14835   0.14309  -0.0327  0.0296  1.0000  -2.4093   0.0000   0.0000   0.0000   0.2878
  12.700   0.7107   0.15002   0.14476  -0.0332  0.0300  1.0000  -2.4086   0.0000   0.0000   0.0000   0.2883
  12.800   0.7134   0.15148   0.14622  -0.0334  0.0304  1.0000  -2.4290   0.0000   0.0000   0.0000   0.2883
  12.900   0.7177   0.15249   0.14724  -0.0330  0.0308  1.0000  -2.4926   0.0000   0.0000   0.0000   0.2874
  13.200   0.5444   0.14027   0.13531  -0.0143  0.0306  1.0000  -1.9553   0.0000   0.0000   0.0000   0.2696
  13.300   0.5455   0.14126   0.13631  -0.0144  0.0308  1.0000  -1.9694   0.0000   0.0000   0.0000   0.2696
  13.700   0.7255   0.17047   0.16522  -0.0405  0.0466  1.0000  -2.0960   0.0000   0.0000   0.0000   0.2969
  13.800   0.7299   0.17214   0.16689  -0.0405  0.0464  1.0000  -2.1273   0.0000   0.0000   0.0000   0.2965
  13.900   0.7348   0.17392   0.16867  -0.0403  0.0462  1.0000  -2.1644   0.0000   0.0000   0.0000   0.2957
  14.000   0.7352   0.17562   0.17036  -0.0415  0.0462  1.0000  -2.1329   0.0000   0.0000   0.0000   0.2972
  14.100   0.7351   0.17721   0.17194  -0.0427  0.0461  1.0000  -2.0979   0.0000   0.0000   0.0000   0.2988
  14.200   0.7350   0.17879   0.17351  -0.0441  0.0460  1.0000  -2.0595   0.0000   0.0000   0.0000   0.3006
  14.300   0.7349   0.18036   0.17506  -0.0455  0.0458  1.0000  -2.0178   0.0000   0.0000   0.0000   0.3024
  14.400   0.7349   0.18193   0.17662  -0.0469  0.0453  1.0000  -1.9755   0.0000   0.0000   0.0000   0.3042
  14.500   0.7360   0.18347   0.17816  -0.0480  0.0445  1.0000  -1.9495   0.0000   0.0000   0.0000   0.3056
  14.600   0.7380   0.18496   0.17964  -0.0489  0.0436  1.0000  -1.9417   0.0000   0.0000   0.0000   0.3065
  14.700   0.7406   0.18637   0.18105  -0.0495  0.0428  1.0000  -1.9467   0.0000   0.0000   0.0000   0.3070
  14.800   0.7439   0.18770   0.18239  -0.0499  0.0419  1.0000  -1.9682   0.0000   0.0000   0.0000   0.3071
  14.900   0.7496   0.18906   0.18376  -0.0493  0.0411  1.0000  -2.0403   0.0000   0.0000   0.0000   0.3057
  15.000   0.7545   0.19087   0.18557  -0.0491  0.0407  1.0000  -2.0816   0.0000   0.0000   0.0000   0.3049


