xflr5 v6.59

 Calculated polar for: NACA 0008

 1 1 Reynolds number fixed          Mach number fixed         

 xtrf =   1.000 (top)        1.000 (bottom)
 Mach =   0.050     Re =     0.200 e 6     Ncrit =   5.000

  alpha     CL        CD       CDp       Cm    Top Xtr Bot Xtr   Cpmin    Chinge    XCp    
 ------- -------- --------- --------- -------- ------- ------- -------- --------- ---------
  -3.000  -0.3649   0.01018   0.00294   0.0045  1.0000  0.3520  -1.4469   0.0000   0.0000   0.0000   0.2597
  -2.900  -0.3556   0.01000   0.00287   0.0048  1.0000  0.3802  -1.3883   0.0000   0.0000   0.0000   0.2609
  -2.800  -0.3463   0.00982   0.00281   0.0051  1.0000  0.4083  -1.3302   0.0000   0.0000   0.0000   0.2622
  -2.700  -0.3370   0.00966   0.00276   0.0054  1.0000  0.4362  -1.2727   0.0000   0.0000   0.0000   0.2635
  -2.600  -0.3277   0.00950   0.00271   0.0057  1.0000  0.4637  -1.2159   0.0000   0.0000   0.0000   0.2650
  -2.500  -0.3184   0.00935   0.00267   0.0061  1.0000  0.4908  -1.1648   0.0000   0.0000   0.0000   0.2667
  -2.400  -0.3090   0.00920   0.00262   0.0064  1.0000  0.5176  -1.1149   0.0000   0.0000   0.0000   0.2684
  -2.300  -0.2997   0.00907   0.00258   0.0068  1.0000  0.5441  -1.0655   0.0000   0.0000   0.0000   0.2703
  -2.200  -0.2904   0.00893   0.00256   0.0071  1.0000  0.5703  -1.0166   0.0000   0.0000   0.0000   0.2724
  -2.100  -0.2811   0.00881   0.00254   0.0075  1.0000  0.5959  -0.9683   0.0000   0.0000   0.0000   0.2747
  -2.000  -0.2718   0.00869   0.00252   0.0080  1.0000  0.6211  -0.9231   0.0000   0.0000   0.0000   0.2771
  -1.900  -0.2624   0.00858   0.00251   0.0084  1.0000  0.6458  -0.8805   0.0000   0.0000   0.0000   0.2798
  -1.800  -0.2531   0.00848   0.00251   0.0088  1.0000  0.6699  -0.8383   0.0000   0.0000   0.0000   0.2828
  -1.700  -0.2437   0.00839   0.00251   0.0093  1.0000  0.6933  -0.7966   0.0000   0.0000   0.0000   0.2860
  -1.600  -0.2344   0.00831   0.00252   0.0097  1.0000  0.7164  -0.7576   0.0000   0.0000   0.0000   0.2895
  -1.500  -0.2251   0.00824   0.00253   0.0102  1.0000  0.7382  -0.7207   0.0000   0.0000   0.0000   0.2935
  -1.400  -0.2157   0.00818   0.00254   0.0107  1.0000  0.7598  -0.6840   0.0000   0.0000   0.0000   0.2978
  -1.300  -0.2034   0.00812   0.00256   0.0106  0.9983  0.7814  -0.6449   0.0000   0.0000   0.0000   0.3003
  -1.200  -0.1892   0.00808   0.00258   0.0101  0.9954  0.8024  -0.6043   0.0000   0.0000   0.0000   0.3015
  -1.100  -0.1747   0.00806   0.00261   0.0095  0.9927  0.8221  -0.5659   0.0000   0.0000   0.0000   0.3029
  -1.000  -0.1603   0.00804   0.00263   0.0090  0.9893  0.8403  -0.5296   0.0000   0.0000   0.0000   0.3045
  -0.900  -0.1452   0.00804   0.00266   0.0083  0.9866  0.8567  -0.4953   0.0000   0.0000   0.0000   0.3058
  -0.800  -0.1303   0.00803   0.00269   0.0077  0.9831  0.8718  -0.4636   0.0000   0.0000   0.0000   0.3076
  -0.700  -0.1142   0.00804   0.00270   0.0068  0.9804  0.8855  -0.4329   0.0000   0.0000   0.0000   0.3082
  -0.600  -0.0991   0.00804   0.00272   0.0062  0.9763  0.8979  -0.4056   0.0000   0.0000   0.0000   0.3104
  -0.500  -0.0826   0.00805   0.00273   0.0052  0.9729  0.9089  -0.3793   0.0000   0.0000   0.0000   0.3108
  -0.400  -0.0669   0.00806   0.00275   0.0043  0.9683  0.9188  -0.3561   0.0000   0.0000   0.0000   0.3129
  -0.300  -0.0499   0.00807   0.00276   0.0032  0.9644  0.9276  -0.3338   0.0000   0.0000   0.0000   0.3123
  -0.200  -0.0341   0.00807   0.00276   0.0023  0.9591  0.9358  -0.3143   0.0000   0.0000   0.0000   0.3159
  -0.100  -0.0164   0.00807   0.00277   0.0010  0.9546  0.9423  -0.2951   0.0000   0.0000   0.0000   0.3106
   0.000   0.0000   0.00807   0.00277  -0.0000  0.9486  0.9486  -0.2783   0.0000   0.0000   0.0000   0.4016
   0.100   0.0164   0.00807   0.00277  -0.0010  0.9423  0.9546  -0.2951   0.0000   0.0000   0.0000   0.3106
   0.200   0.0341   0.00807   0.00276  -0.0023  0.9358  0.9591  -0.3143   0.0000   0.0000   0.0000   0.3159
   0.300   0.0499   0.00807   0.00276  -0.0032  0.9275  0.9644  -0.3338   0.0000   0.0000   0.0000   0.3123
   0.400   0.0669   0.00806   0.00275  -0.0043  0.9188  0.9683  -0.3561   0.0000   0.0000   0.0000   0.3129
   0.500   0.0826   0.00805   0.00273  -0.0052  0.9089  0.9729  -0.3793   0.0000   0.0000   0.0000   0.3108
   0.600   0.0991   0.00804   0.00272  -0.0062  0.8979  0.9763  -0.4056   0.0000   0.0000   0.0000   0.3104
   0.700   0.1142   0.00804   0.00270  -0.0068  0.8855  0.9804  -0.4329   0.0000   0.0000   0.0000   0.3082
   0.800   0.1303   0.00803   0.00269  -0.0077  0.8718  0.9832  -0.4636   0.0000   0.0000   0.0000   0.3076
   0.900   0.1452   0.00804   0.00266  -0.0083  0.8567  0.9867  -0.4953   0.0000   0.0000   0.0000   0.3058
   1.000   0.1603   0.00804   0.00263  -0.0090  0.8402  0.9894  -0.5296   0.0000   0.0000   0.0000   0.3045
   1.100   0.1747   0.00806   0.00261  -0.0095  0.8220  0.9927  -0.5659   0.0000   0.0000   0.0000   0.3029
   1.200   0.1892   0.00808   0.00258  -0.0101  0.8024  0.9954  -0.6043   0.0000   0.0000   0.0000   0.3015
   1.300   0.2034   0.00812   0.00256  -0.0106  0.7814  0.9983  -0.6448   0.0000   0.0000   0.0000   0.3003
   1.400   0.2157   0.00818   0.00254  -0.0107  0.7598  1.0000  -0.6840   0.0000   0.0000   0.0000   0.2978
   1.500   0.2251   0.00824   0.00253  -0.0102  0.7383  1.0000  -0.7206   0.0000   0.0000   0.0000   0.2935
   1.600   0.2344   0.00831   0.00252  -0.0097  0.7163  1.0000  -0.7576   0.0000   0.0000   0.0000   0.2895
   1.700   0.2437   0.00839   0.00251  -0.0093  0.6933  1.0000  -0.7965   0.0000   0.0000   0.0000   0.2860
   1.800   0.2531   0.00848   0.00251  -0.0088  0.6699  1.0000  -0.8383   0.0000   0.0000   0.0000   0.2827
   1.900   0.2624   0.00858   0.00251  -0.0084  0.6458  1.0000  -0.8804   0.0000   0.0000   0.0000   0.2798
   2.000   0.2717   0.00869   0.00252  -0.0080  0.6211  1.0000  -0.9231   0.0000   0.0000   0.0000   0.2771
   2.100   0.2811   0.00881   0.00254  -0.0075  0.5960  1.0000  -0.9683   0.0000   0.0000   0.0000   0.2746
   2.200   0.2904   0.00893   0.00256  -0.0071  0.5704  1.0000  -1.0166   0.0000   0.0000   0.0000   0.2724
   2.300   0.2997   0.00906   0.00258  -0.0068  0.5442  1.0000  -1.0655   0.0000   0.0000   0.0000   0.2703
   2.400   0.3090   0.00920   0.00262  -0.0064  0.5177  1.0000  -1.1149   0.0000   0.0000   0.0000   0.2684
   2.500   0.3183   0.00935   0.00267  -0.0061  0.4908  1.0000  -1.1648   0.0000   0.0000   0.0000   0.2666
   2.600   0.3277   0.00950   0.00271  -0.0057  0.4637  1.0000  -1.2158   0.0000   0.0000   0.0000   0.2650
   2.700   0.3370   0.00966   0.00276  -0.0054  0.4362  1.0000  -1.2727   0.0000   0.0000   0.0000   0.2635
   2.800   0.3463   0.00982   0.00281  -0.0051  0.4083  1.0000  -1.3302   0.0000   0.0000   0.0000   0.2621
   2.900   0.3556   0.01000   0.00287  -0.0048  0.3803  1.0000  -1.3882   0.0000   0.0000   0.0000   0.2609
   3.000   0.3648   0.01018   0.00294  -0.0045  0.3520  1.0000  -1.4468   0.0000   0.0000   0.0000   0.2597
   3.100   0.3741   0.01037   0.00302  -0.0042  0.3238  1.0000  -1.5060   0.0000   0.0000   0.0000   0.2585
   3.200   0.3834   0.01057   0.00310  -0.0039  0.2957  1.0000  -1.5656   0.0000   0.0000   0.0000   0.2575
   3.300   0.3927   0.01077   0.00319  -0.0037  0.2677  1.0000  -1.6259   0.0000   0.0000   0.0000   0.2565
   3.400   0.4019   0.01098   0.00330  -0.0034  0.2406  1.0000  -1.6901   0.0000   0.0000   0.0000   0.2556
   3.500   0.4112   0.01120   0.00340  -0.0031  0.2145  1.0000  -1.7588   0.0000   0.0000   0.0000   0.2547
   3.600   0.4205   0.01142   0.00351  -0.0029  0.1898  1.0000  -1.8283   0.0000   0.0000   0.0000   0.2539
   3.700   0.4298   0.01164   0.00363  -0.0026  0.1667  1.0000  -1.8984   0.0000   0.0000   0.0000   0.2531
   3.800   0.4391   0.01186   0.00376  -0.0024  0.1462  1.0000  -1.9691   0.0000   0.0000   0.0000   0.2523
   3.900   0.4485   0.01208   0.00390  -0.0021  0.1280  1.0000  -2.0405   0.0000   0.0000   0.0000   0.2516
   4.000   0.4579   0.01229   0.00404  -0.0019  0.1120  1.0000  -2.1124   0.0000   0.0000   0.0000   0.2509
   4.100   0.4673   0.01251   0.00419  -0.0016  0.0989  1.0000  -2.1849   0.0000   0.0000   0.0000   0.2502
   4.200   0.4768   0.01271   0.00435  -0.0014  0.0877  1.0000  -2.2579   0.0000   0.0000   0.0000   0.2496
   4.300   0.4863   0.01293   0.00453  -0.0011  0.0785  1.0000  -2.3312   0.0000   0.0000   0.0000   0.2489
   4.400   0.4959   0.01314   0.00470  -0.0008  0.0711  1.0000  -2.4049   0.0000   0.0000   0.0000   0.2483
   4.500   0.5055   0.01334   0.00488  -0.0006  0.0648  1.0000  -2.4790   0.0000   0.0000   0.0000   0.2477
   4.600   0.5151   0.01354   0.00506  -0.0003  0.0594  1.0000  -2.5626   0.0000   0.0000   0.0000   0.2471
   4.700   0.5248   0.01374   0.00526  -0.0001  0.0549  1.0000  -2.6477   0.0000   0.0000   0.0000   0.2465
   4.800   0.5343   0.01396   0.00546   0.0002  0.0514  1.0000  -2.7332   0.0000   0.0000   0.0000   0.2460
   4.900   0.5440   0.01416   0.00568   0.0004  0.0480  1.0000  -2.8191   0.0000   0.0000   0.0000   0.2454
   5.000   0.5536   0.01439   0.00590   0.0007  0.0452  1.0000  -2.9058   0.0000   0.0000   0.0000   0.2449
   5.100   0.5633   0.01459   0.00612   0.0010  0.0424  1.0000  -2.9936   0.0000   0.0000   0.0000   0.2444
   5.200   0.5728   0.01484   0.00635   0.0012  0.0402  1.0000  -3.0816   0.0000   0.0000   0.0000   0.2439
   5.300   0.5824   0.01506   0.00662   0.0015  0.0383  1.0000  -3.1669   0.0000   0.0000   0.0000   0.2434
   5.400   0.5920   0.01530   0.00687   0.0018  0.0366  1.0000  -3.2552   0.0000   0.0000   0.0000   0.2430
   5.500   0.6014   0.01557   0.00714   0.0020  0.0351  1.0000  -3.3427   0.0000   0.0000   0.0000   0.2425
   5.600   0.6110   0.01581   0.00742   0.0023  0.0334  1.0000  -3.4295   0.0000   0.0000   0.0000   0.2420
   5.700   0.6206   0.01605   0.00767   0.0025  0.0319  1.0000  -3.5218   0.0000   0.0000   0.0000   0.2416
   5.800   0.6299   0.01634   0.00794   0.0028  0.0307  1.0000  -3.6139   0.0000   0.0000   0.0000   0.2412
   5.900   0.6395   0.01660   0.00827   0.0031  0.0295  1.0000  -3.6986   0.0000   0.0000   0.0000   0.2407
   6.000   0.6489   0.01690   0.00860   0.0034  0.0285  1.0000  -3.7839   0.0000   0.0000   0.0000   0.2403
   6.100   0.6582   0.01720   0.00891   0.0037  0.0276  1.0000  -3.8721   0.0000   0.0000   0.0000   0.2398
   6.200   0.6674   0.01752   0.00925   0.0039  0.0269  1.0000  -3.9625   0.0000   0.0000   0.0000   0.2394
   6.300   0.6765   0.01790   0.00963   0.0042  0.0262  1.0000  -4.0482   0.0000   0.0000   0.0000   0.2390
   6.400   0.6859   0.01823   0.01004   0.0046  0.0253  1.0000  -4.1399   0.0000   0.0000   0.0000   0.2385
   6.500   0.6953   0.01855   0.01040   0.0048  0.0243  1.0000  -4.2422   0.0000   0.0000   0.0000   0.2381
   6.600   0.7047   0.01884   0.01072   0.0051  0.0235  1.0000  -4.3518   0.0000   0.0000   0.0000   0.2378
   6.700   0.7140   0.01915   0.01102   0.0053  0.0228  1.0000  -4.4661   0.0000   0.0000   0.0000   0.2375
   6.800   0.7229   0.01954   0.01141   0.0056  0.0222  1.0000  -4.5746   0.0000   0.0000   0.0000   0.2371
   6.900   0.7322   0.01996   0.01192   0.0059  0.0216  1.0000  -4.6664   0.0000   0.0000   0.0000   0.2367
   7.000   0.7413   0.02042   0.01246   0.0062  0.0211  1.0000  -4.7585   0.0000   0.0000   0.0000   0.2362
   7.100   0.7503   0.02088   0.01298   0.0066  0.0206  1.0000  -4.8526   0.0000   0.0000   0.0000   0.2358
   7.200   0.7594   0.02135   0.01352   0.0069  0.0201  1.0000  -4.9495   0.0000   0.0000   0.0000   0.2354
   7.300   0.7684   0.02180   0.01402   0.0072  0.0197  1.0000  -5.0491   0.0000   0.0000   0.0000   0.2351
   7.400   0.7773   0.02226   0.01452   0.0075  0.0193  1.0000  -5.1517   0.0000   0.0000   0.0000   0.2347
   7.500   0.7862   0.02272   0.01502   0.0077  0.0190  1.0000  -5.2570   0.0000   0.0000   0.0000   0.2344
   7.600   0.7948   0.02322   0.01553   0.0080  0.0187  1.0000  -5.3654   0.0000   0.0000   0.0000   0.2341
   7.700   0.8033   0.02383   0.01621   0.0083  0.0183  1.0000  -5.4568   0.0000   0.0000   0.0000   0.2337
   7.800   0.8120   0.02449   0.01704   0.0087  0.0178  1.0000  -5.5301   0.0000   0.0000   0.0000   0.2332
   7.900   0.8205   0.02513   0.01781   0.0091  0.0173  1.0000  -5.6115   0.0000   0.0000   0.0000   0.2328
   8.000   0.8289   0.02569   0.01849   0.0094  0.0167  1.0000  -5.7047   0.0000   0.0000   0.0000   0.2324
   8.100   0.8373   0.02622   0.01911   0.0097  0.0163  1.0000  -5.8058   0.0000   0.0000   0.0000   0.2321
   8.200   0.8456   0.02673   0.01970   0.0100  0.0159  1.0000  -5.9117   0.0000   0.0000   0.0000   0.2318
   8.300   0.8537   0.02729   0.02033   0.0103  0.0157  1.0000  -6.0138   0.0000   0.0000   0.0000   0.2315
   8.400   0.8616   0.02789   0.02100   0.0106  0.0155  1.0000  -6.1140   0.0000   0.0000   0.0000   0.2311
   8.500   0.8693   0.02852   0.02169   0.0109  0.0153  1.0000  -6.2145   0.0000   0.0000   0.0000   0.2308
   8.600   0.8765   0.02924   0.02247   0.0112  0.0151  1.0000  -6.3102   0.0000   0.0000   0.0000   0.2304
   8.700   0.8828   0.03030   0.02370   0.0117  0.0149  1.0000  -6.3559   0.0000   0.0000   0.0000   0.2299
   8.800   0.8881   0.03160   0.02525   0.0123  0.0147  1.0000  -6.3690   0.0000   0.0000   0.0000   0.2292
   8.900   0.8926   0.03302   0.02692   0.0129  0.0145  1.0000  -6.3711   0.0000   0.0000   0.0000   0.2286
   9.000   0.8962   0.03457   0.02872   0.0135  0.0144  1.0000  -6.3626   0.0000   0.0000   0.0000   0.2279
   9.100   0.8987   0.03625   0.03065   0.0141  0.0142  1.0000  -6.3433   0.0000   0.0000   0.0000   0.2272
   9.200   0.9002   0.03805   0.03269   0.0147  0.0141  1.0000  -6.3125   0.0000   0.0000   0.0000   0.2265
   9.300   0.9004   0.03997   0.03486   0.0153  0.0140  1.0000  -6.2699   0.0000   0.0000   0.0000   0.2258
   9.400   0.8994   0.04203   0.03714   0.0159  0.0139  1.0000  -6.2156   0.0000   0.0000   0.0000   0.2251
   9.500   0.8969   0.04420   0.03953   0.0164  0.0138  1.0000  -6.1501   0.0000   0.0000   0.0000   0.2244
   9.600   0.8929   0.04647   0.04201   0.0168  0.0138  1.0000  -6.0808   0.0000   0.0000   0.0000   0.2239
   9.700   0.8876   0.04882   0.04455   0.0171  0.0138  1.0000  -6.0063   0.0000   0.0000   0.0000   0.2234
   9.800   0.8808   0.05122   0.04712   0.0172  0.0138  1.0000  -5.9243   0.0000   0.0000   0.0000   0.2230
   9.900   0.8729   0.05364   0.04968   0.0171  0.0138  1.0000  -5.8372   0.0000   0.0000   0.0000   0.2229
  10.000   0.8634   0.05582   0.05197   0.0171  0.0138  1.0000  -5.7548   0.0000   0.0000   0.0000   0.2225
  10.100   0.8534   0.05815   0.05440   0.0166  0.0138  1.0000  -5.6689   0.0000   0.0000   0.0000   0.2229
  10.200   0.8432   0.06083   0.05716   0.0150  0.0139  1.0000  -5.5742   0.0000   0.0000   0.0000   0.2244
  10.300   0.8329   0.06409   0.06051   0.0121  0.0140  1.0000  -5.4632   0.0000   0.0000   0.0000   0.2275
  10.400   0.8221   0.06841   0.06490   0.0077  0.0141  1.0000  -5.3162   0.0000   0.0000   0.0000   0.2326
  10.500   0.8095   0.07489   0.07145   0.0012  0.0143  1.0000  -5.0798   0.0000   0.0000   0.0000   0.2404
  10.600   0.7940   0.08298   0.07955  -0.0046  0.0145  1.0000  -4.7351   0.0000   0.0000   0.0000   0.2478
  10.700   0.7846   0.08786   0.08440  -0.0076  0.0146  1.0000  -4.5437   0.0000   0.0000   0.0000   0.2517
  10.800   0.7772   0.09184   0.08835  -0.0099  0.0147  1.0000  -4.3988   0.0000   0.0000   0.0000   0.2548
  10.900   0.7710   0.09540   0.09190  -0.0119  0.0147  1.0000  -4.2759   0.0000   0.0000   0.0000   0.2574
  11.000   0.7656   0.09868   0.09516  -0.0137  0.0148  1.0000  -4.1676   0.0000   0.0000   0.0000   0.2598
  11.100   0.7609   0.10176   0.09822  -0.0153  0.0148  1.0000  -4.0701   0.0000   0.0000   0.0000   0.2619
  11.200   0.7568   0.10468   0.10112  -0.0167  0.0148  1.0000  -3.9814   0.0000   0.0000   0.0000   0.2639
  11.300   0.7532   0.10746   0.10389  -0.0181  0.0149  1.0000  -3.9018   0.0000   0.0000   0.0000   0.2657
  11.400   0.7501   0.11012   0.10654  -0.0193  0.0149  1.0000  -3.8334   0.0000   0.0000   0.0000   0.2675
  11.500   0.7474   0.11268   0.10908  -0.0205  0.0149  1.0000  -3.7715   0.0000   0.0000   0.0000   0.2691
  11.600   0.7451   0.11514   0.11154  -0.0216  0.0150  1.0000  -3.7157   0.0000   0.0000   0.0000   0.2706
  11.700   0.7432   0.11752   0.11391  -0.0226  0.0150  1.0000  -3.6658   0.0000   0.0000   0.0000   0.2720
  11.800   0.7416   0.11983   0.11620  -0.0236  0.0150  1.0000  -3.6209   0.0000   0.0000   0.0000   0.2733
  11.900   0.7401   0.12212   0.11849  -0.0246  0.0150  1.0000  -3.5753   0.0000   0.0000   0.0000   0.2746
  12.100   0.7296   0.12987   0.12621  -0.0280  0.0153  1.0000  -3.2086   0.0000   0.0000   0.0000   0.2799
  12.200   0.7324   0.13063   0.12697  -0.0282  0.0151  1.0000  -3.2927   0.0000   0.0000   0.0000   0.2799
  12.300   0.7335   0.13202   0.12835  -0.0288  0.0150  1.0000  -3.3239   0.0000   0.0000   0.0000   0.2805
  12.400   0.7316   0.13473   0.13105  -0.0299  0.0150  1.0000  -3.2378   0.0000   0.0000   0.0000   0.2821
  12.500   0.7297   0.13750   0.13381  -0.0312  0.0149  1.0000  -3.1453   0.0000   0.0000   0.0000   0.2839
  12.600   0.7280   0.14025   0.13655  -0.0324  0.0148  1.0000  -3.0529   0.0000   0.0000   0.0000   0.2856
  12.700   0.7266   0.14294   0.13922  -0.0336  0.0147  1.0000  -2.9660   0.0000   0.0000   0.0000   0.2873
  12.800   0.7258   0.14544   0.14172  -0.0347  0.0146  1.0000  -2.8929   0.0000   0.0000   0.0000   0.2889
  12.900   0.7254   0.14778   0.14405  -0.0357  0.0144  1.0000  -2.8339   0.0000   0.0000   0.0000   0.2903
  13.000   0.7255   0.14995   0.14622  -0.0366  0.0144  1.0000  -2.7873   0.0000   0.0000   0.0000   0.2915
  13.100   0.7259   0.15198   0.14824  -0.0375  0.0143  1.0000  -2.7508   0.0000   0.0000   0.0000   0.2927
  13.200   0.7266   0.15389   0.15015  -0.0383  0.0143  1.0000  -2.7237   0.0000   0.0000   0.0000   0.2936
  13.300   0.7274   0.15576   0.15201  -0.0391  0.0144  1.0000  -2.6999   0.0000   0.0000   0.0000   0.2945
  13.400   0.7284   0.15759   0.15384  -0.0398  0.0144  1.0000  -2.6786   0.0000   0.0000   0.0000   0.2954
  13.500   0.7296   0.15938   0.15563  -0.0406  0.0145  1.0000  -2.6604   0.0000   0.0000   0.0000   0.2963
  13.600   0.7310   0.16113   0.15737  -0.0413  0.0146  1.0000  -2.6457   0.0000   0.0000   0.0000   0.2970
  13.700   0.7325   0.16282   0.15906  -0.0419  0.0146  1.0000  -2.6355   0.0000   0.0000   0.0000   0.2978
  13.800   0.7342   0.16445   0.16069  -0.0426  0.0147  1.0000  -2.6310   0.0000   0.0000   0.0000   0.2984
  13.900   0.7362   0.16600   0.16224  -0.0431  0.0148  1.0000  -2.6340   0.0000   0.0000   0.0000   0.2989
  14.000   0.7385   0.16746   0.16369  -0.0436  0.0149  1.0000  -2.6471   0.0000   0.0000   0.0000   0.2993
  14.100   0.7411   0.16881   0.16505  -0.0440  0.0149  1.0000  -2.6719   0.0000   0.0000   0.0000   0.2995
  14.200   0.7440   0.17002   0.16626  -0.0443  0.0150  1.0000  -2.7113   0.0000   0.0000   0.0000   0.2995
  14.800   0.5419   0.15689   0.15339  -0.0231  0.0178  1.0000  -1.7868   0.0000   0.0000   0.0000   0.2852
  14.900   0.5442   0.15774   0.15425  -0.0232  0.0182  1.0000  -1.8187   0.0000   0.0000   0.0000   0.2851
  15.000   0.5489   0.15835   0.15486  -0.0229  0.0184  1.0000  -1.9035   0.0000   0.0000   0.0000   0.2840
  15.100   0.7578   0.18882   0.18505  -0.0518  0.0221  1.0000  -2.2340   0.0000   0.0000   0.0000   0.3078
  15.200   0.7596   0.19054   0.18678  -0.0528  0.0221  1.0000  -2.2050   0.0000   0.0000   0.0000   0.3088
  15.300   0.7615   0.19227   0.18851  -0.0538  0.0221  1.0000  -2.1743   0.0000   0.0000   0.0000   0.3099
  15.400   0.7634   0.19400   0.19023  -0.0548  0.0220  1.0000  -2.1414   0.0000   0.0000   0.0000   0.3110
  15.500   0.7653   0.19574   0.19197  -0.0559  0.0220  1.0000  -2.1057   0.0000   0.0000   0.0000   0.3121
  15.600   0.7673   0.19750   0.19372  -0.0570  0.0219  1.0000  -2.0668   0.0000   0.0000   0.0000   0.3133
  15.700   0.7694   0.19926   0.19548  -0.0581  0.0217  1.0000  -2.0268   0.0000   0.0000   0.0000   0.3145
  15.800   0.7717   0.20097   0.19718  -0.0592  0.0213  1.0000  -1.9929   0.0000   0.0000   0.0000   0.3156
  15.900   0.7742   0.20257   0.19878  -0.0601  0.0209  1.0000  -1.9739   0.0000   0.0000   0.0000   0.3164
  16.000   0.7770   0.20408   0.20029  -0.0609  0.0204  1.0000  -1.9656   0.0000   0.0000   0.0000   0.3171
  16.100   0.7798   0.20549   0.20171  -0.0617  0.0200  1.0000  -1.9663   0.0000   0.0000   0.0000   0.3176
  16.200   0.7828   0.20681   0.20303  -0.0623  0.0196  1.0000  -1.9774   0.0000   0.0000   0.0000   0.3181
  16.300   0.7860   0.20804   0.20425  -0.0629  0.0192  1.0000  -2.0023   0.0000   0.0000   0.0000   0.3183
  16.400   0.7894   0.20912   0.20534  -0.0632  0.0189  1.0000  -2.0512   0.0000   0.0000   0.0000   0.3182
  16.500   0.7938   0.21007   0.20629  -0.0629  0.0186  1.0000  -2.1529   0.0000   0.0000   0.0000   0.3171
  16.600   0.7977   0.21155   0.20778  -0.0629  0.0185  1.0000  -2.2075   0.0000   0.0000   0.0000   0.3166
  16.700   0.7994   0.21324   0.20946  -0.0642  0.0184  1.0000  -2.1613   0.0000   0.0000   0.0000   0.3181
  16.800   0.8015   0.21492   0.21113  -0.0655  0.0184  1.0000  -2.1231   0.0000   0.0000   0.0000   0.3193
  16.900   0.8039   0.21657   0.21278  -0.0666  0.0183  1.0000  -2.0957   0.0000   0.0000   0.0000   0.3204
  17.000   0.8065   0.21822   0.21443  -0.0677  0.0183  1.0000  -2.0698   0.0000   0.0000   0.0000   0.3214


