xflr5 v6.59

 Calculated polar for: NACA 0008

 1 1 Reynolds number fixed          Mach number fixed         

 xtrf =   1.000 (top)        1.000 (bottom)
 Mach =   0.050     Re =     3.000 e 6     Ncrit =   5.000

  alpha     CL        CD       CDp       Cm    Top Xtr Bot Xtr   Cpmin    Chinge    XCp    
 ------- -------- --------- --------- -------- ------- ------- -------- --------- ---------
  -3.000  -0.3305   0.00633   0.00119  -0.0003  0.7809  0.0532  -1.3742   0.0000   0.0000   0.0000   0.2465
  -2.900  -0.3196   0.00630   0.00115  -0.0002  0.7688  0.0585  -1.3103   0.0000   0.0000   0.0000   0.2467
  -2.800  -0.3086   0.00628   0.00111  -0.0002  0.7566  0.0644  -1.2473   0.0000   0.0000   0.0000   0.2468
  -2.700  -0.2976   0.00625   0.00107  -0.0002  0.7442  0.0702  -1.1850   0.0000   0.0000   0.0000   0.2469
  -2.600  -0.2866   0.00622   0.00103  -0.0001  0.7317  0.0762  -1.1277   0.0000   0.0000   0.0000   0.2471
  -2.500  -0.2756   0.00619   0.00100  -0.0001  0.7192  0.0839  -1.0737   0.0000   0.0000   0.0000   0.2472
  -2.400  -0.2646   0.00616   0.00096  -0.0001  0.7069  0.0919  -1.0203   0.0000   0.0000   0.0000   0.2473
  -2.300  -0.2536   0.00613   0.00093  -0.0001  0.6944  0.0996  -0.9675   0.0000   0.0000   0.0000   0.2474
  -2.200  -0.2426   0.00610   0.00089  -0.0000  0.6821  0.1088  -0.9155   0.0000   0.0000   0.0000   0.2475
  -2.100  -0.2316   0.00607   0.00086  -0.0000  0.6696  0.1185  -0.8688   0.0000   0.0000   0.0000   0.2476
  -2.000  -0.2206   0.00604   0.00083  -0.0000  0.6570  0.1286  -0.8233   0.0000   0.0000   0.0000   0.2476
  -1.900  -0.2096   0.00601   0.00080   0.0000  0.6444  0.1397  -0.7784   0.0000   0.0000   0.0000   0.2477
  -1.800  -0.1986   0.00598   0.00078   0.0000  0.6317  0.1511  -0.7356   0.0000   0.0000   0.0000   0.2478
  -1.700  -0.1875   0.00595   0.00075   0.0000  0.6193  0.1626  -0.6959   0.0000   0.0000   0.0000   0.2479
  -1.600  -0.1765   0.00591   0.00072   0.0000  0.6068  0.1751  -0.6567   0.0000   0.0000   0.0000   0.2479
  -1.500  -0.1655   0.00588   0.00070   0.0000  0.5944  0.1877  -0.6203   0.0000   0.0000   0.0000   0.2480
  -1.400  -0.1545   0.00585   0.00067   0.0000  0.5819  0.2013  -0.5855   0.0000   0.0000   0.0000   0.2481
  -1.300  -0.1435   0.00583   0.00065   0.0000  0.5692  0.2145  -0.5525   0.0000   0.0000   0.0000   0.2481
  -1.200  -0.1325   0.00580   0.00063   0.0000  0.5564  0.2282  -0.5213   0.0000   0.0000   0.0000   0.2482
  -1.100  -0.1215   0.00577   0.00062   0.0000  0.5436  0.2423  -0.4922   0.0000   0.0000   0.0000   0.2482
  -1.000  -0.1104   0.00574   0.00060   0.0000  0.5309  0.2567  -0.4646   0.0000   0.0000   0.0000   0.2483
  -0.900  -0.0994   0.00572   0.00059   0.0000  0.5183  0.2711  -0.4387   0.0000   0.0000   0.0000   0.2483
  -0.700  -0.0773   0.00568   0.00056   0.0000  0.4927  0.2997  -0.3927   0.0000   0.0000   0.0000   0.2484
  -0.600  -0.0663   0.00566   0.00055   0.0000  0.4798  0.3143  -0.3720   0.0000   0.0000   0.0000   0.2484
  -0.500  -0.0552   0.00565   0.00054   0.0000  0.4667  0.3289  -0.3530   0.0000   0.0000   0.0000   0.2484
  -0.400  -0.0442   0.00564   0.00054   0.0000  0.4535  0.3433  -0.3354   0.0000   0.0000   0.0000   0.2485
  -0.300  -0.0331   0.00563   0.00053   0.0000  0.4402  0.3576  -0.3190   0.0000   0.0000   0.0000   0.2485
  -0.200  -0.0221   0.00562   0.00053   0.0000  0.4268  0.3717  -0.3037   0.0000   0.0000   0.0000   0.2485
  -0.100  -0.0111   0.00562   0.00052   0.0000  0.4131  0.3856  -0.2896   0.0000   0.0000   0.0000   0.2485
   0.000  -0.0000   0.00562   0.00052   0.0000  0.3994  0.3994  -0.2764   0.0000   0.0000   0.0000   0.3996
   0.100   0.0111   0.00562   0.00052  -0.0000  0.3856  0.4131  -0.2896   0.0000   0.0000   0.0000   0.2485
   0.200   0.0221   0.00562   0.00053  -0.0000  0.3717  0.4268  -0.3037   0.0000   0.0000   0.0000   0.2485
   0.300   0.0331   0.00563   0.00053  -0.0000  0.3576  0.4402  -0.3190   0.0000   0.0000   0.0000   0.2485
   0.400   0.0442   0.00564   0.00054  -0.0000  0.3433  0.4535  -0.3354   0.0000   0.0000   0.0000   0.2485
   0.500   0.0552   0.00565   0.00054  -0.0000  0.3289  0.4667  -0.3530   0.0000   0.0000   0.0000   0.2484
   0.600   0.0663   0.00566   0.00055  -0.0000  0.3143  0.4798  -0.3720   0.0000   0.0000   0.0000   0.2484
   0.700   0.0773   0.00568   0.00056  -0.0000  0.2997  0.4927  -0.3927   0.0000   0.0000   0.0000   0.2484
   0.900   0.0994   0.00572   0.00059  -0.0000  0.2711  0.5183  -0.4387   0.0000   0.0000   0.0000   0.2483
   1.000   0.1104   0.00574   0.00060  -0.0000  0.2567  0.5309  -0.4646   0.0000   0.0000   0.0000   0.2483
   1.100   0.1215   0.00577   0.00062  -0.0000  0.2423  0.5436  -0.4922   0.0000   0.0000   0.0000   0.2482
   1.200   0.1325   0.00580   0.00063  -0.0000  0.2282  0.5564  -0.5213   0.0000   0.0000   0.0000   0.2482
   1.300   0.1435   0.00583   0.00065  -0.0000  0.2145  0.5692  -0.5525   0.0000   0.0000   0.0000   0.2481
   1.400   0.1545   0.00585   0.00067  -0.0000  0.2013  0.5819  -0.5855   0.0000   0.0000   0.0000   0.2481
   1.500   0.1655   0.00588   0.00070  -0.0000  0.1877  0.5944  -0.6203   0.0000   0.0000   0.0000   0.2480
   1.600   0.1765   0.00591   0.00072  -0.0000  0.1751  0.6068  -0.6567   0.0000   0.0000   0.0000   0.2480
   1.700   0.1875   0.00595   0.00075  -0.0000  0.1626  0.6193  -0.6959   0.0000   0.0000   0.0000   0.2479
   1.800   0.1986   0.00598   0.00078  -0.0000  0.1511  0.6317  -0.7356   0.0000   0.0000   0.0000   0.2478
   2.000   0.2206   0.00604   0.00083   0.0000  0.1286  0.6570  -0.8233   0.0000   0.0000   0.0000   0.2477
   2.100   0.2316   0.00607   0.00086   0.0000  0.1185  0.6696  -0.8688   0.0000   0.0000   0.0000   0.2476
   2.200   0.2426   0.00610   0.00089   0.0000  0.1088  0.6821  -0.9155   0.0000   0.0000   0.0000   0.2475
   2.300   0.2536   0.00613   0.00093   0.0001  0.0996  0.6944  -0.9675   0.0000   0.0000   0.0000   0.2474
   2.400   0.2646   0.00616   0.00096   0.0001  0.0919  0.7069  -1.0203   0.0000   0.0000   0.0000   0.2473
   2.500   0.2756   0.00619   0.00100   0.0001  0.0839  0.7192  -1.0737   0.0000   0.0000   0.0000   0.2472
   2.600   0.2866   0.00622   0.00103   0.0001  0.0762  0.7317  -1.1278   0.0000   0.0000   0.0000   0.2471
   2.700   0.2976   0.00625   0.00107   0.0001  0.0702  0.7442  -1.1850   0.0000   0.0000   0.0000   0.2469
   2.800   0.3086   0.00628   0.00111   0.0002  0.0644  0.7566  -1.2473   0.0000   0.0000   0.0000   0.2468
   2.900   0.3196   0.00630   0.00115   0.0002  0.0585  0.7688  -1.3103   0.0000   0.0000   0.0000   0.2467
   3.000   0.3305   0.00633   0.00119   0.0003  0.0532  0.7809  -1.3742   0.0000   0.0000   0.0000   0.2465
   3.100   0.3415   0.00635   0.00123   0.0003  0.0493  0.7929  -1.4391   0.0000   0.0000   0.0000   0.2464
   3.200   0.3525   0.00638   0.00128   0.0004  0.0457  0.8048  -1.5047   0.0000   0.0000   0.0000   0.2462
   3.300   0.3634   0.00640   0.00132   0.0004  0.0422  0.8165  -1.5712   0.0000   0.0000   0.0000   0.2461
   3.400   0.3743   0.00643   0.00136   0.0005  0.0388  0.8281  -1.6428   0.0000   0.0000   0.0000   0.2459
   3.500   0.3852   0.00646   0.00141   0.0005  0.0354  0.8396  -1.7196   0.0000   0.0000   0.0000   0.2457
   3.600   0.3960   0.00648   0.00146   0.0006  0.0330  0.8508  -1.7974   0.0000   0.0000   0.0000   0.2455
   3.700   0.4069   0.00651   0.00151   0.0007  0.0307  0.8617  -1.8760   0.0000   0.0000   0.0000   0.2453
   3.800   0.4177   0.00653   0.00156   0.0008  0.0290  0.8722  -1.9557   0.0000   0.0000   0.0000   0.2451
   3.900   0.4284   0.00657   0.00161   0.0009  0.0271  0.8823  -2.0362   0.0000   0.0000   0.0000   0.2448
   4.000   0.4392   0.00660   0.00166   0.0010  0.0256  0.8923  -2.1178   0.0000   0.0000   0.0000   0.2446
   4.100   0.4499   0.00663   0.00171   0.0011  0.0238  0.9019  -2.2003   0.0000   0.0000   0.0000   0.2443
   4.200   0.4605   0.00667   0.00177   0.0013  0.0221  0.9112  -2.2833   0.0000   0.0000   0.0000   0.2440
   4.300   0.4711   0.00670   0.00182   0.0014  0.0209  0.9198  -2.3674   0.0000   0.0000   0.0000   0.2436
   4.400   0.4816   0.00674   0.00188   0.0016  0.0198  0.9280  -2.4522   0.0000   0.0000   0.0000   0.2433
   4.500   0.4921   0.00679   0.00194   0.0018  0.0185  0.9359  -2.5457   0.0000   0.0000   0.0000   0.2429
   4.600   0.5025   0.00683   0.00199   0.0020  0.0179  0.9435  -2.6432   0.0000   0.0000   0.0000   0.2426
   4.700   0.5129   0.00687   0.00205   0.0022  0.0172  0.9503  -2.7418   0.0000   0.0000   0.0000   0.2422
   4.800   0.5234   0.00692   0.00211   0.0024  0.0163  0.9567  -2.8420   0.0000   0.0000   0.0000   0.2418
   4.900   0.5339   0.00698   0.00217   0.0025  0.0154  0.9628  -2.9434   0.0000   0.0000   0.0000   0.2415
   5.000   0.5446   0.00703   0.00223   0.0026  0.0148  0.9680  -3.0474   0.0000   0.0000   0.0000   0.2414
   5.100   0.5556   0.00709   0.00229   0.0027  0.0143  0.9729  -3.1541   0.0000   0.0000   0.0000   0.2413
   5.200   0.5671   0.00715   0.00235   0.0026  0.0136  0.9768  -3.2642   0.0000   0.0000   0.0000   0.2414
   5.300   0.5786   0.00723   0.00242   0.0026  0.0128  0.9805  -3.3759   0.0000   0.0000   0.0000   0.2416
   5.400   0.5907   0.00730   0.00249   0.0023  0.0120  0.9833  -3.4915   0.0000   0.0000   0.0000   0.2420
   5.500   0.6026   0.00737   0.00256   0.0022  0.0117  0.9861  -3.6082   0.0000   0.0000   0.0000   0.2423
   5.600   0.6149   0.00744   0.00263   0.0019  0.0114  0.9882  -3.7282   0.0000   0.0000   0.0000   0.2427
   5.700   0.6273   0.00751   0.00270   0.0016  0.0110  0.9901  -3.8504   0.0000   0.0000   0.0000   0.2432
   5.800   0.6395   0.00759   0.00277   0.0013  0.0106  0.9920  -3.9726   0.0000   0.0000   0.0000   0.2435
   5.900   0.6518   0.00767   0.00285   0.0011  0.0102  0.9935  -4.0971   0.0000   0.0000   0.0000   0.2439
   6.000   0.6643   0.00776   0.00294   0.0007  0.0097  0.9947  -4.2241   0.0000   0.0000   0.0000   0.2444
   6.100   0.6767   0.00785   0.00303   0.0004  0.0092  0.9960  -4.3503   0.0000   0.0000   0.0000   0.2447
   6.200   0.6888   0.00793   0.00311   0.0002  0.0091  0.9973  -4.4781   0.0000   0.0000   0.0000   0.2450
   6.300   0.7015   0.00801   0.00319  -0.0002  0.0089  0.9980  -4.6127   0.0000   0.0000   0.0000   0.2455
   6.400   0.7142   0.00809   0.00327  -0.0006  0.0087  0.9987  -4.7615   0.0000   0.0000   0.0000   0.2459
   6.500   0.7268   0.00817   0.00335  -0.0009  0.0085  0.9993  -4.9116   0.0000   0.0000   0.0000   0.2463
   6.600   0.7392   0.00826   0.00344  -0.0012  0.0083  1.0000  -5.0629   0.0000   0.0000   0.0000   0.2466
   6.700   0.7497   0.00835   0.00353  -0.0011  0.0080  1.0000  -5.2029   0.0000   0.0000   0.0000   0.2463
   6.800   0.7599   0.00844   0.00362  -0.0009  0.0078  1.0000  -5.3435   0.0000   0.0000   0.0000   0.2459
   6.900   0.7702   0.00853   0.00371  -0.0007  0.0075  1.0000  -5.4857   0.0000   0.0000   0.0000   0.2456
   7.000   0.7805   0.00863   0.00381  -0.0006  0.0072  1.0000  -5.6287   0.0000   0.0000   0.0000   0.2453
   7.100   0.7908   0.00874   0.00392  -0.0004  0.0068  1.0000  -5.7722   0.0000   0.0000   0.0000   0.2450
   7.200   0.8012   0.00883   0.00402  -0.0003  0.0067  1.0000  -5.9196   0.0000   0.0000   0.0000   0.2447
   7.300   0.8116   0.00892   0.00411  -0.0001  0.0066  1.0000  -6.0694   0.0000   0.0000   0.0000   0.2445
   7.400   0.8221   0.00901   0.00420  -0.0000  0.0066  1.0000  -6.2207   0.0000   0.0000   0.0000   0.2442
   7.500   0.8326   0.00910   0.00430   0.0001  0.0065  1.0000  -6.3734   0.0000   0.0000   0.0000   0.2440
   7.600   0.8431   0.00920   0.00440   0.0002  0.0064  1.0000  -6.5278   0.0000   0.0000   0.0000   0.2437
   7.700   0.8536   0.00929   0.00450   0.0003  0.0063  1.0000  -6.6835   0.0000   0.0000   0.0000   0.2435
   7.800   0.8640   0.00939   0.00461   0.0004  0.0061  1.0000  -6.8408   0.0000   0.0000   0.0000   0.2433
   7.900   0.8745   0.00950   0.00472   0.0005  0.0060  1.0000  -6.9996   0.0000   0.0000   0.0000   0.2430
   8.000   0.8850   0.00961   0.00483   0.0006  0.0059  1.0000  -7.1598   0.0000   0.0000   0.0000   0.2428
   8.100   0.8954   0.00972   0.00494   0.0008  0.0058  1.0000  -7.3216   0.0000   0.0000   0.0000   0.2426
   8.200   0.9059   0.00983   0.00506   0.0009  0.0056  1.0000  -7.4848   0.0000   0.0000   0.0000   0.2424
   8.300   0.9163   0.00994   0.00518   0.0010  0.0055  1.0000  -7.6493   0.0000   0.0000   0.0000   0.2421
   8.400   0.9267   0.01007   0.00531   0.0011  0.0054  1.0000  -7.8148   0.0000   0.0000   0.0000   0.2419
   8.500   0.9371   0.01019   0.00544   0.0012  0.0052  1.0000  -7.9812   0.0000   0.0000   0.0000   0.2417
   8.600   0.9475   0.01032   0.00558   0.0013  0.0051  1.0000  -8.1479   0.0000   0.0000   0.0000   0.2415
   8.700   0.9578   0.01046   0.00573   0.0014  0.0049  1.0000  -8.3146   0.0000   0.0000   0.0000   0.2413
   8.800   0.9681   0.01061   0.00589   0.0015  0.0048  1.0000  -8.4808   0.0000   0.0000   0.0000   0.2410
   8.900   0.9784   0.01075   0.00604   0.0017  0.0047  1.0000  -8.6489   0.0000   0.0000   0.0000   0.2408
   9.000   0.9888   0.01087   0.00617   0.0018  0.0047  1.0000  -8.8242   0.0000   0.0000   0.0000   0.2406
   9.100   0.9992   0.01100   0.00631   0.0019  0.0046  1.0000  -9.0007   0.0000   0.0000   0.0000   0.2404
   9.200   1.0096   0.01112   0.00644   0.0020  0.0046  1.0000  -9.1784   0.0000   0.0000   0.0000   0.2402
   9.300   1.0199   0.01125   0.00658   0.0021  0.0046  1.0000  -9.3574   0.0000   0.0000   0.0000   0.2400
   9.400   1.0303   0.01138   0.00673   0.0022  0.0046  1.0000  -9.5374   0.0000   0.0000   0.0000   0.2398
   9.500   1.0406   0.01151   0.00687   0.0023  0.0045  1.0000  -9.7187   0.0000   0.0000   0.0000   0.2396
   9.600   1.0508   0.01165   0.00702   0.0024  0.0045  1.0000  -9.9011   0.0000   0.0000   0.0000   0.2393
   9.700   1.0611   0.01179   0.00717   0.0025  0.0044  1.0000  -10.0847   0.0000   0.0000   0.0000   0.2391
   9.800   1.0713   0.01193   0.00733   0.0026  0.0044  1.0000  -10.2694   0.0000   0.0000   0.0000   0.2389
   9.900   1.0815   0.01208   0.00749   0.0028  0.0043  1.0000  -10.4553   0.0000   0.0000   0.0000   0.2387
  10.000   1.0917   0.01223   0.00765   0.0029  0.0043  1.0000  -10.6424   0.0000   0.0000   0.0000   0.2385
  10.100   1.1018   0.01238   0.00782   0.0030  0.0042  1.0000  -10.8305   0.0000   0.0000   0.0000   0.2383
  10.200   1.1120   0.01254   0.00799   0.0031  0.0042  1.0000  -11.0197   0.0000   0.0000   0.0000   0.2380
  10.300   1.1220   0.01270   0.00816   0.0033  0.0041  1.0000  -11.2101   0.0000   0.0000   0.0000   0.2378
  10.400   1.1321   0.01286   0.00834   0.0034  0.0041  1.0000  -11.4016   0.0000   0.0000   0.0000   0.2376
  10.500   1.1421   0.01303   0.00852   0.0035  0.0040  1.0000  -11.5942   0.0000   0.0000   0.0000   0.2373
  10.600   1.1521   0.01319   0.00870   0.0037  0.0039  1.0000  -11.7881   0.0000   0.0000   0.0000   0.2371
  10.700   1.1620   0.01337   0.00889   0.0038  0.0039  1.0000  -11.9834   0.0000   0.0000   0.0000   0.2369
  10.800   1.1719   0.01354   0.00908   0.0039  0.0038  1.0000  -12.1887   0.0000   0.0000   0.0000   0.2366
  10.900   1.1818   0.01372   0.00927   0.0041  0.0038  1.0000  -12.4029   0.0000   0.0000   0.0000   0.2364
  11.000   1.1916   0.01390   0.00946   0.0042  0.0037  1.0000  -12.6183   0.0000   0.0000   0.0000   0.2362
  11.100   1.2014   0.01409   0.00967   0.0044  0.0036  1.0000  -12.8347   0.0000   0.0000   0.0000   0.2359
  11.200   1.2111   0.01429   0.00987   0.0045  0.0036  1.0000  -13.0518   0.0000   0.0000   0.0000   0.2357
  11.300   1.2208   0.01449   0.01009   0.0047  0.0035  1.0000  -13.2693   0.0000   0.0000   0.0000   0.2354
  11.400   1.2304   0.01470   0.01032   0.0049  0.0034  1.0000  -13.4870   0.0000   0.0000   0.0000   0.2352
  11.500   1.2399   0.01492   0.01056   0.0051  0.0034  1.0000  -13.7045   0.0000   0.0000   0.0000   0.2349
  11.600   1.2493   0.01514   0.01081   0.0052  0.0033  1.0000  -13.9217   0.0000   0.0000   0.0000   0.2346
  11.700   1.2587   0.01538   0.01107   0.0054  0.0032  1.0000  -14.1387   0.0000   0.0000   0.0000   0.2343
  11.800   1.2679   0.01563   0.01135   0.0057  0.0032  1.0000  -14.3548   0.0000   0.0000   0.0000   0.2341
  11.900   1.2771   0.01590   0.01164   0.0059  0.0031  1.0000  -14.5701   0.0000   0.0000   0.0000   0.2338
  12.000   1.2861   0.01618   0.01196   0.0061  0.0031  1.0000  -14.7840   0.0000   0.0000   0.0000   0.2335
  12.100   1.2950   0.01648   0.01229   0.0064  0.0030  1.0000  -14.9977   0.0000   0.0000   0.0000   0.2331
  12.200   1.3042   0.01670   0.01253   0.0066  0.0030  1.0000  -15.2253   0.0000   0.0000   0.0000   0.2329
  12.300   1.3135   0.01693   0.01278   0.0068  0.0030  1.0000  -15.4537   0.0000   0.0000   0.0000   0.2326
  12.400   1.3226   0.01716   0.01303   0.0070  0.0030  1.0000  -15.6828   0.0000   0.0000   0.0000   0.2323
  12.500   1.3317   0.01740   0.01329   0.0072  0.0030  1.0000  -15.9126   0.0000   0.0000   0.0000   0.2320
  12.600   1.3408   0.01764   0.01356   0.0074  0.0030  1.0000  -16.1431   0.0000   0.0000   0.0000   0.2317
  12.700   1.3497   0.01788   0.01383   0.0076  0.0030  1.0000  -16.3742   0.0000   0.0000   0.0000   0.2315
  12.800   1.3586   0.01813   0.01410   0.0078  0.0030  1.0000  -16.6058   0.0000   0.0000   0.0000   0.2312
  12.900   1.3674   0.01839   0.01439   0.0081  0.0030  1.0000  -16.8378   0.0000   0.0000   0.0000   0.2309
  13.000   1.3762   0.01865   0.01467   0.0083  0.0029  1.0000  -17.0702   0.0000   0.0000   0.0000   0.2306
  13.100   1.3848   0.01892   0.01497   0.0086  0.0029  1.0000  -17.3028   0.0000   0.0000   0.0000   0.2302
  13.200   1.3934   0.01919   0.01527   0.0088  0.0029  1.0000  -17.5356   0.0000   0.0000   0.0000   0.2299
  13.300   1.4018   0.01947   0.01557   0.0091  0.0029  1.0000  -17.7685   0.0000   0.0000   0.0000   0.2296
  13.400   1.4102   0.01976   0.01589   0.0094  0.0029  1.0000  -18.0014   0.0000   0.0000   0.0000   0.2293
  13.500   1.4185   0.02005   0.01621   0.0096  0.0029  1.0000  -18.2342   0.0000   0.0000   0.0000   0.2289
  13.600   1.4266   0.02035   0.01654   0.0099  0.0029  1.0000  -18.4668   0.0000   0.0000   0.0000   0.2286
  13.700   1.4347   0.02066   0.01687   0.0102  0.0028  1.0000  -18.6990   0.0000   0.0000   0.0000   0.2283
  13.800   1.4426   0.02097   0.01722   0.0105  0.0028  1.0000  -18.9308   0.0000   0.0000   0.0000   0.2279
  13.900   1.4504   0.02129   0.01757   0.0109  0.0028  1.0000  -19.1621   0.0000   0.0000   0.0000   0.2276
  14.000   1.4581   0.02162   0.01793   0.0112  0.0028  1.0000  -19.3926   0.0000   0.0000   0.0000   0.2272
  14.100   1.4656   0.02196   0.01830   0.0115  0.0028  1.0000  -19.6222   0.0000   0.0000   0.0000   0.2268
  14.200   1.4729   0.02231   0.01868   0.0119  0.0028  1.0000  -19.8509   0.0000   0.0000   0.0000   0.2264
  14.300   1.4802   0.02267   0.01907   0.0123  0.0027  1.0000  -20.0784   0.0000   0.0000   0.0000   0.2261
  14.400   1.4872   0.02304   0.01947   0.0126  0.0027  1.0000  -20.3045   0.0000   0.0000   0.0000   0.2257
  14.500   1.4940   0.02341   0.01988   0.0130  0.0027  1.0000  -20.5289   0.0000   0.0000   0.0000   0.2253
  14.600   1.5007   0.02380   0.02030   0.0135  0.0027  1.0000  -20.7515   0.0000   0.0000   0.0000   0.2248
  14.700   1.5071   0.02420   0.02074   0.0139  0.0027  1.0000  -20.9718   0.0000   0.0000   0.0000   0.2244
  14.800   1.5133   0.02461   0.02118   0.0143  0.0026  1.0000  -21.1897   0.0000   0.0000   0.0000   0.2240
  14.900   1.5193   0.02503   0.02164   0.0148  0.0026  1.0000  -21.4048   0.0000   0.0000   0.0000   0.2235
  15.000   1.5250   0.02547   0.02211   0.0153  0.0026  1.0000  -21.6168   0.0000   0.0000   0.0000   0.2231


