xflr5 v6.59

 Calculated polar for: NACA 0008

 1 1 Reynolds number fixed          Mach number fixed         

 xtrf =   1.000 (top)        1.000 (bottom)
 Mach =   0.050     Re =     0.030 e 6     Ncrit =   5.000

  alpha     CL        CD       CDp       Cm    Top Xtr Bot Xtr   Cpmin    Chinge    XCp    
 ------- -------- --------- --------- -------- ------- ------- -------- --------- ---------
  -3.000  -0.2997   0.02288   0.01079   0.0038  1.0000  0.9204  -1.1353   0.0000   0.0000   0.0000   0.2596
  -2.900  -0.2710   0.02274   0.01039   0.0005  1.0000  0.9402  -1.0428   0.0000   0.0000   0.0000   0.2488
  -2.800  -0.2431   0.02254   0.00998  -0.0029  1.0000  0.9588  -0.9576   0.0000   0.0000   0.0000   0.2350
  -2.700  -0.2152   0.02230   0.00953  -0.0065  1.0000  0.9761  -0.8791   0.0000   0.0000   0.0000   0.2166
  -2.600  -0.1870   0.02201   0.00905  -0.0103  1.0000  0.9925  -0.8023   0.0000   0.0000   0.0000   0.1915
  -2.500  -0.1694   0.02173   0.00865  -0.0122  1.0000  1.0000  -0.7530   0.0000   0.0000   0.0000   0.1743
  -2.400  -0.1630   0.02152   0.00838  -0.0119  1.0000  1.0000  -0.7251   0.0000   0.0000   0.0000   0.1732
  -2.300  -0.1566   0.02133   0.00813  -0.0116  1.0000  1.0000  -0.6969   0.0000   0.0000   0.0000   0.1721
  -2.200  -0.1501   0.02115   0.00786  -0.0113  1.0000  1.0000  -0.6704   0.0000   0.0000   0.0000   0.1711
  -2.100  -0.1435   0.02099   0.00764  -0.0110  1.0000  1.0000  -0.6445   0.0000   0.0000   0.0000   0.1700
  -2.000  -0.1369   0.02084   0.00743  -0.0106  1.0000  1.0000  -0.6186   0.0000   0.0000   0.0000   0.1690
  -1.900  -0.1301   0.02070   0.00724  -0.0102  1.0000  1.0000  -0.5937   0.0000   0.0000   0.0000   0.1681
  -1.800  -0.1234   0.02057   0.00707  -0.0098  1.0000  1.0000  -0.5699   0.0000   0.0000   0.0000   0.1671
  -1.700  -0.1166   0.02045   0.00690  -0.0094  1.0000  1.0000  -0.5461   0.0000   0.0000   0.0000   0.1662
  -1.600  -0.1097   0.02035   0.00675  -0.0089  1.0000  1.0000  -0.5240   0.0000   0.0000   0.0000   0.1653
  -1.500  -0.1028   0.02025   0.00661  -0.0085  1.0000  1.0000  -0.5022   0.0000   0.0000   0.0000   0.1644
  -1.400  -0.0960   0.02016   0.00648  -0.0080  1.0000  1.0000  -0.4816   0.0000   0.0000   0.0000   0.1635
  -1.300  -0.0891   0.02008   0.00636  -0.0075  1.0000  1.0000  -0.4615   0.0000   0.0000   0.0000   0.1626
  -1.200  -0.0821   0.02001   0.00626  -0.0070  1.0000  1.0000  -0.4428   0.0000   0.0000   0.0000   0.1617
  -1.100  -0.0752   0.01994   0.00614  -0.0065  1.0000  1.0000  -0.4246   0.0000   0.0000   0.0000   0.1609
  -1.000  -0.0683   0.01988   0.00605  -0.0059  1.0000  1.0000  -0.4074   0.0000   0.0000   0.0000   0.1600
  -0.900  -0.0614   0.01983   0.00597  -0.0054  1.0000  1.0000  -0.3913   0.0000   0.0000   0.0000   0.1591
  -0.800  -0.0545   0.01978   0.00590  -0.0048  1.0000  1.0000  -0.3759   0.0000   0.0000   0.0000   0.1583
  -0.700  -0.0476   0.01974   0.00584  -0.0043  1.0000  1.0000  -0.3613   0.0000   0.0000   0.0000   0.1574
  -0.600  -0.0407   0.01971   0.00579  -0.0037  1.0000  1.0000  -0.3475   0.0000   0.0000   0.0000   0.1564
  -0.500  -0.0338   0.01968   0.00575  -0.0031  1.0000  1.0000  -0.3346   0.0000   0.0000   0.0000   0.1554
  -0.400  -0.0270   0.01966   0.00571  -0.0025  1.0000  1.0000  -0.3224   0.0000   0.0000   0.0000   0.1546
  -0.300  -0.0202   0.01964   0.00568  -0.0019  1.0000  1.0000  -0.3109   0.0000   0.0000   0.0000   0.1540
  -0.200  -0.0135   0.01962   0.00566  -0.0013  1.0000  1.0000  -0.3001   0.0000   0.0000   0.0000   0.1535
  -0.100  -0.0067   0.01962   0.00565  -0.0006  1.0000  1.0000  -0.2899   0.0000   0.0000   0.0000   0.1532
   0.000   0.0000   0.01961   0.00565  -0.0000  1.0000  1.0000  -0.2801   0.0000   0.0000   0.0000   0.4408
   0.100   0.0067   0.01962   0.00565   0.0006  1.0000  1.0000  -0.2899   0.0000   0.0000   0.0000   0.1532
   0.200   0.0135   0.01962   0.00566   0.0013  1.0000  1.0000  -0.3001   0.0000   0.0000   0.0000   0.1535
   0.300   0.0202   0.01964   0.00568   0.0019  1.0000  1.0000  -0.3109   0.0000   0.0000   0.0000   0.1540
   0.400   0.0270   0.01966   0.00571   0.0025  1.0000  1.0000  -0.3224   0.0000   0.0000   0.0000   0.1546
   0.500   0.0338   0.01968   0.00575   0.0031  1.0000  1.0000  -0.3346   0.0000   0.0000   0.0000   0.1555
   0.600   0.0407   0.01971   0.00579   0.0037  1.0000  1.0000  -0.3475   0.0000   0.0000   0.0000   0.1564
   0.700   0.0476   0.01974   0.00584   0.0043  1.0000  1.0000  -0.3613   0.0000   0.0000   0.0000   0.1574
   0.800   0.0545   0.01978   0.00590   0.0048  1.0000  1.0000  -0.3759   0.0000   0.0000   0.0000   0.1583
   0.900   0.0614   0.01983   0.00597   0.0054  1.0000  1.0000  -0.3913   0.0000   0.0000   0.0000   0.1592
   1.000   0.0683   0.01988   0.00605   0.0059  1.0000  1.0000  -0.4075   0.0000   0.0000   0.0000   0.1600
   1.100   0.0752   0.01994   0.00614   0.0065  1.0000  1.0000  -0.4246   0.0000   0.0000   0.0000   0.1609
   1.200   0.0822   0.02000   0.00626   0.0070  1.0000  1.0000  -0.4428   0.0000   0.0000   0.0000   0.1618
   1.300   0.0891   0.02008   0.00636   0.0075  1.0000  1.0000  -0.4616   0.0000   0.0000   0.0000   0.1626
   1.400   0.0960   0.02016   0.00648   0.0080  1.0000  1.0000  -0.4816   0.0000   0.0000   0.0000   0.1635
   1.500   0.1029   0.02025   0.00661   0.0085  1.0000  1.0000  -0.5022   0.0000   0.0000   0.0000   0.1644
   1.600   0.1097   0.02035   0.00675   0.0089  1.0000  1.0000  -0.5240   0.0000   0.0000   0.0000   0.1653
   1.700   0.1166   0.02045   0.00690   0.0094  1.0000  1.0000  -0.5461   0.0000   0.0000   0.0000   0.1663
   1.800   0.1234   0.02057   0.00706   0.0098  1.0000  1.0000  -0.5699   0.0000   0.0000   0.0000   0.1672
   1.900   0.1302   0.02070   0.00724   0.0102  1.0000  1.0000  -0.5937   0.0000   0.0000   0.0000   0.1681
   2.000   0.1369   0.02084   0.00743   0.0106  1.0000  1.0000  -0.6186   0.0000   0.0000   0.0000   0.1691
   2.100   0.1435   0.02099   0.00764   0.0110  1.0000  1.0000  -0.6446   0.0000   0.0000   0.0000   0.1701
   2.200   0.1501   0.02115   0.00786   0.0113  1.0000  1.0000  -0.6705   0.0000   0.0000   0.0000   0.1711
   2.300   0.1567   0.02133   0.00812   0.0116  1.0000  1.0000  -0.6970   0.0000   0.0000   0.0000   0.1722
   2.400   0.1631   0.02152   0.00838   0.0119  1.0000  1.0000  -0.7252   0.0000   0.0000   0.0000   0.1733
   2.500   0.1694   0.02173   0.00865   0.0122  1.0000  1.0000  -0.7532   0.0000   0.0000   0.0000   0.1744
   2.600   0.1870   0.02201   0.00905   0.0103  0.9925  1.0000  -0.8023   0.0000   0.0000   0.0000   0.1915
   2.700   0.2152   0.02230   0.00953   0.0065  0.9762  1.0000  -0.8791   0.0000   0.0000   0.0000   0.2166
   2.800   0.2431   0.02254   0.00997   0.0029  0.9589  1.0000  -0.9577   0.0000   0.0000   0.0000   0.2350
   2.900   0.2710   0.02273   0.01038  -0.0005  0.9402  1.0000  -1.0428   0.0000   0.0000   0.0000   0.2488
   3.000   0.2997   0.02288   0.01079  -0.0038  0.9204  1.0000  -1.1353   0.0000   0.0000   0.0000   0.2596
   3.100   0.3278   0.02295   0.01111  -0.0067  0.8989  1.0000  -1.2290   0.0000   0.0000   0.0000   0.2675
   3.200   0.3527   0.02296   0.01135  -0.0087  0.8751  1.0000  -1.3211   0.0000   0.0000   0.0000   0.2718
   3.300   0.3747   0.02294   0.01153  -0.0099  0.8489  1.0000  -1.4124   0.0000   0.0000   0.0000   0.2737
   3.400   0.3942   0.02289   0.01165  -0.0105  0.8202  1.0000  -1.4982   0.0000   0.0000   0.0000   0.2738
   3.500   0.4117   0.02283   0.01173  -0.0105  0.7889  1.0000  -1.5798   0.0000   0.0000   0.0000   0.2725
   3.600   0.4258   0.02279   0.01181  -0.0098  0.7550  1.0000  -1.6525   0.0000   0.0000   0.0000   0.2700
   3.700   0.4379   0.02279   0.01183  -0.0086  0.7187  1.0000  -1.7203   0.0000   0.0000   0.0000   0.2667
   3.800   0.4478   0.02283   0.01186  -0.0071  0.6800  1.0000  -1.7863   0.0000   0.0000   0.0000   0.2629
   3.900   0.4564   0.02293   0.01188  -0.0054  0.6393  1.0000  -1.8511   0.0000   0.0000   0.0000   0.2588
   4.000   0.4638   0.02309   0.01191  -0.0036  0.5965  1.0000  -1.9117   0.0000   0.0000   0.0000   0.2547
   4.100   0.4704   0.02332   0.01198  -0.0018  0.5516  1.0000  -1.9690   0.0000   0.0000   0.0000   0.2507
   4.200   0.4765   0.02363   0.01208  -0.0001  0.5047  1.0000  -2.0237   0.0000   0.0000   0.0000   0.2470
   4.300   0.4821   0.02403   0.01222   0.0016  0.4571  1.0000  -2.0759   0.0000   0.0000   0.0000   0.2435
   4.400   0.4877   0.02451   0.01243   0.0030  0.4083  1.0000  -2.1255   0.0000   0.0000   0.0000   0.2406
   4.500   0.4931   0.02509   0.01270   0.0042  0.3625  1.0000  -2.1730   0.0000   0.0000   0.0000   0.2381
   4.600   0.4989   0.02574   0.01309   0.0053  0.3203  1.0000  -2.2187   0.0000   0.0000   0.0000   0.2360
   4.700   0.5051   0.02645   0.01351   0.0061  0.2842  1.0000  -2.2632   0.0000   0.0000   0.0000   0.2344
   4.800   0.5118   0.02719   0.01403   0.0068  0.2533  1.0000  -2.3066   0.0000   0.0000   0.0000   0.2332
   4.900   0.5189   0.02793   0.01457   0.0074  0.2288  1.0000  -2.3502   0.0000   0.0000   0.0000   0.2322
   5.000   0.5266   0.02867   0.01517   0.0079  0.2085  1.0000  -2.3933   0.0000   0.0000   0.0000   0.2314
   5.100   0.5345   0.02940   0.01577   0.0083  0.1924  1.0000  -2.4380   0.0000   0.0000   0.0000   0.2307
   5.200   0.5429   0.03012   0.01646   0.0088  0.1781  1.0000  -2.4898   0.0000   0.0000   0.0000   0.2301
   5.300   0.5515   0.03085   0.01715   0.0092  0.1665  1.0000  -2.5423   0.0000   0.0000   0.0000   0.2295
   5.400   0.5602   0.03157   0.01786   0.0095  0.1564  1.0000  -2.5953   0.0000   0.0000   0.0000   0.2291
   5.500   0.5694   0.03231   0.01862   0.0099  0.1475  1.0000  -2.6477   0.0000   0.0000   0.0000   0.2287
   5.600   0.5793   0.03309   0.01944   0.0101  0.1397  1.0000  -2.7010   0.0000   0.0000   0.0000   0.2286
   5.700   0.5891   0.03387   0.02028   0.0103  0.1328  1.0000  -2.7560   0.0000   0.0000   0.0000   0.2285
   5.800   0.5991   0.03467   0.02111   0.0105  0.1268  1.0000  -2.8115   0.0000   0.0000   0.0000   0.2284
   5.900   0.6097   0.03553   0.02213   0.0107  0.1210  1.0000  -2.8586   0.0000   0.0000   0.0000   0.2284
   6.000   0.6197   0.03637   0.02300   0.0108  0.1162  1.0000  -2.9135   0.0000   0.0000   0.0000   0.2283
   6.100   0.6302   0.03730   0.02411   0.0110  0.1116  1.0000  -2.9578   0.0000   0.0000   0.0000   0.2283
   6.200   0.6401   0.03821   0.02507   0.0112  0.1079  1.0000  -3.0087   0.0000   0.0000   0.0000   0.2282
   6.300   0.6499   0.03920   0.02629   0.0114  0.1039  1.0000  -3.0466   0.0000   0.0000   0.0000   0.2281
   6.400   0.6592   0.04007   0.02712   0.0117  0.1007  1.0000  -3.1042   0.0000   0.0000   0.0000   0.2279
   6.500   0.6686   0.04128   0.02867   0.0119  0.0979  1.0000  -3.1242   0.0000   0.0000   0.0000   0.2277
   6.600   0.6776   0.04239   0.02994   0.0122  0.0954  1.0000  -3.1582   0.0000   0.0000   0.0000   0.2275
   6.700   0.6864   0.04334   0.03087   0.0124  0.0931  1.0000  -3.2125   0.0000   0.0000   0.0000   0.2274
   6.800   0.6941   0.04471   0.03261   0.0127  0.0909  1.0000  -3.2204   0.0000   0.0000   0.0000   0.2271
   6.900   0.7015   0.04598   0.03410   0.0130  0.0886  1.0000  -3.2475   0.0000   0.0000   0.0000   0.2269
   7.000   0.7091   0.04706   0.03526   0.0132  0.0865  1.0000  -3.2983   0.0000   0.0000   0.0000   0.2267
   7.100   0.7165   0.04829   0.03658   0.0135  0.0850  1.0000  -3.3408   0.0000   0.0000   0.0000   0.2265
   7.200   0.7223   0.04993   0.03853   0.0137  0.0840  1.0000  -3.3442   0.0000   0.0000   0.0000   0.2263
   7.300   0.7276   0.05158   0.04044   0.0139  0.0831  1.0000  -3.3494   0.0000   0.0000   0.0000   0.2261
   7.400   0.7325   0.05321   0.04230   0.0141  0.0821  1.0000  -3.3564   0.0000   0.0000   0.0000   0.2260
   7.500   0.7372   0.05478   0.04405   0.0142  0.0811  1.0000  -3.3684   0.0000   0.0000   0.0000   0.2259
   7.600   0.7420   0.05622   0.04562   0.0144  0.0799  1.0000  -3.3913   0.0000   0.0000   0.0000   0.2257
   7.700   0.7481   0.05739   0.04682   0.0146  0.0785  1.0000  -3.4396   0.0000   0.0000   0.0000   0.2255
   7.800   0.7510   0.05911   0.04870   0.0147  0.0777  1.0000  -3.4404   0.0000   0.0000   0.0000   0.2255
   7.900   0.7520   0.06107   0.05089   0.0146  0.0771  1.0000  -3.4189   0.0000   0.0000   0.0000   0.2256
   8.000   0.7526   0.06304   0.05305   0.0145  0.0766  1.0000  -3.3983   0.0000   0.0000   0.0000   0.2257
   8.100   0.7527   0.06501   0.05519   0.0143  0.0761  1.0000  -3.3770   0.0000   0.0000   0.0000   0.2259
   8.200   0.7524   0.06700   0.05732   0.0140  0.0758  1.0000  -3.3548   0.0000   0.0000   0.0000   0.2262
   8.300   0.7515   0.06901   0.05946   0.0137  0.0756  1.0000  -3.3306   0.0000   0.0000   0.0000   0.2266
   8.400   0.7501   0.07105   0.06161   0.0133  0.0754  1.0000  -3.3040   0.0000   0.0000   0.0000   0.2271
   8.500   0.7481   0.07312   0.06377   0.0128  0.0754  1.0000  -3.2746   0.0000   0.0000   0.0000   0.2277
   8.600   0.7457   0.07522   0.06595   0.0122  0.0754  1.0000  -3.2425   0.0000   0.0000   0.0000   0.2284
   8.700   0.7428   0.07735   0.06815   0.0115  0.0755  1.0000  -3.2082   0.0000   0.0000   0.0000   0.2292
   8.800   0.7395   0.07950   0.07035   0.0107  0.0757  1.0000  -3.1721   0.0000   0.0000   0.0000   0.2302
   8.900   0.7360   0.08166   0.07255   0.0098  0.0759  1.0000  -3.1349   0.0000   0.0000   0.0000   0.2312
   9.000   0.7323   0.08384   0.07475   0.0088  0.0761  1.0000  -3.0970   0.0000   0.0000   0.0000   0.2324
   9.100   0.7282   0.08598   0.07691   0.0079  0.0763  1.0000  -3.0583   0.0000   0.0000   0.0000   0.2336
   9.200   0.7239   0.08809   0.07902   0.0069  0.0765  1.0000  -3.0200   0.0000   0.0000   0.0000   0.2348
   9.300   0.7200   0.09028   0.08120   0.0057  0.0768  1.0000  -2.9821   0.0000   0.0000   0.0000   0.2363
   9.400   0.7166   0.09253   0.08345   0.0044  0.0770  1.0000  -2.9447   0.0000   0.0000   0.0000   0.2381
   9.500   0.7138   0.09483   0.08574   0.0029  0.0773  1.0000  -2.9084   0.0000   0.0000   0.0000   0.2401
   9.600   0.7117   0.09718   0.08808   0.0014  0.0775  1.0000  -2.8736   0.0000   0.0000   0.0000   0.2421
   9.700   0.7102   0.09954   0.09043  -0.0001  0.0778  1.0000  -2.8411   0.0000   0.0000   0.0000   0.2441
   9.800   0.7091   0.10184   0.09271  -0.0014  0.0780  1.0000  -2.8119   0.0000   0.0000   0.0000   0.2460
  10.000   0.6988   0.10810   0.09891  -0.0067  0.0797  1.0000  -2.6459   0.0000   0.0000   0.0000   0.2535
  10.100   0.6960   0.11062   0.10141  -0.0085  0.0803  1.0000  -2.5946   0.0000   0.0000   0.0000   0.2560
  10.200   0.6941   0.11296   0.10371  -0.0099  0.0808  1.0000  -2.5539   0.0000   0.0000   0.0000   0.2580
  10.300   0.6927   0.11519   0.10591  -0.0111  0.0813  1.0000  -2.5188   0.0000   0.0000   0.0000   0.2598
  10.400   0.6916   0.11733   0.10803  -0.0122  0.0817  1.0000  -2.4881   0.0000   0.0000   0.0000   0.2614
  10.500   0.6910   0.11942   0.11010  -0.0133  0.0821  1.0000  -2.4607   0.0000   0.0000   0.0000   0.2628
  10.600   0.6905   0.12145   0.11211  -0.0143  0.0825  1.0000  -2.4358   0.0000   0.0000   0.0000   0.2642
  10.700   0.6903   0.12345   0.11409  -0.0152  0.0828  1.0000  -2.4129   0.0000   0.0000   0.0000   0.2655
  10.800   0.6903   0.12542   0.11604  -0.0161  0.0831  1.0000  -2.3918   0.0000   0.0000   0.0000   0.2667
  10.900   0.6905   0.12735   0.11796  -0.0169  0.0834  1.0000  -2.3721   0.0000   0.0000   0.0000   0.2679
  11.000   0.6908   0.12927   0.11986  -0.0177  0.0836  1.0000  -2.3535   0.0000   0.0000   0.0000   0.2690
  11.100   0.6912   0.13116   0.12174  -0.0185  0.0838  1.0000  -2.3359   0.0000   0.0000   0.0000   0.2700
  11.200   0.6918   0.13304   0.12360  -0.0193  0.0841  1.0000  -2.3194   0.0000   0.0000   0.0000   0.2711
  11.300   0.6925   0.13490   0.12545  -0.0201  0.0843  1.0000  -2.3038   0.0000   0.0000   0.0000   0.2721
  11.400   0.6933   0.13675   0.12729  -0.0208  0.0845  1.0000  -2.2892   0.0000   0.0000   0.0000   0.2730
  11.500   0.6944   0.13858   0.12911  -0.0215  0.0847  1.0000  -2.2758   0.0000   0.0000   0.0000   0.2739
  11.600   0.6956   0.14040   0.13092  -0.0221  0.0849  1.0000  -2.2641   0.0000   0.0000   0.0000   0.2747
  11.700   0.6972   0.14220   0.13272  -0.0227  0.0851  1.0000  -2.2548   0.0000   0.0000   0.0000   0.2754
  11.800   0.6993   0.14399   0.13450  -0.0232  0.0854  1.0000  -2.2496   0.0000   0.0000   0.0000   0.2759
  12.000   0.6938   0.14833   0.13879  -0.0268  0.0893  1.0000  -2.1285   0.0000   0.0000   0.0000   0.2812
  12.100   0.6951   0.15018   0.14063  -0.0275  0.0902  1.0000  -2.1121   0.0000   0.0000   0.0000   0.2821
  12.200   0.6973   0.15201   0.14246  -0.0281  0.0912  1.0000  -2.1023   0.0000   0.0000   0.0000   0.2828
  12.300   0.7016   0.15386   0.14432  -0.0282  0.0925  1.0000  -2.1086   0.0000   0.0000   0.0000   0.2827
  12.400   0.6979   0.15604   0.14648  -0.0304  0.0970  1.0000  -2.0314   0.0000   0.0000   0.0000   0.2859
  12.500   0.7025   0.15811   0.14855  -0.0306  0.0999  1.0000  -2.0314   0.0000   0.0000   0.0000   0.2859
  12.600   0.5365   0.14459   0.13559  -0.0128  0.1067  1.0000  -1.6273   0.0000   0.0000   0.0000   0.2681
  12.700   0.5407   0.14632   0.13733  -0.0129  0.1084  1.0000  -1.6335   0.0000   0.0000   0.0000   0.2680
  12.900   0.7054   0.17015   0.16067  -0.0396  0.1752  1.0000  -1.7360   0.0000   0.0000   0.0000   0.2984
  13.000   0.7071   0.17171   0.16224  -0.0402  0.1752  1.0000  -1.7279   0.0000   0.0000   0.0000   0.2991
  13.100   0.7094   0.17334   0.16386  -0.0408  0.1749  1.0000  -1.7236   0.0000   0.0000   0.0000   0.2996
  13.200   0.7124   0.17506   0.16558  -0.0413  0.1746  1.0000  -1.7274   0.0000   0.0000   0.0000   0.3000
  13.300   0.7163   0.17697   0.16750  -0.0416  0.1740  1.0000  -1.7358   0.0000   0.0000   0.0000   0.3001
  13.400   0.7218   0.17927   0.16982  -0.0418  0.1734  1.0000  -1.7516   0.0000   0.0000   0.0000   0.2999
  13.500   0.7220   0.18051   0.17102  -0.0427  0.1730  1.0000  -1.7417   0.0000   0.0000   0.0000   0.3009
  13.600   0.7211   0.18148   0.17197  -0.0436  0.1725  1.0000  -1.7276   0.0000   0.0000   0.0000   0.3022
  13.700   0.7200   0.18232   0.17279  -0.0445  0.1714  1.0000  -1.7128   0.0000   0.0000   0.0000   0.3035
  13.800   0.7201   0.18331   0.17377  -0.0454  0.1696  1.0000  -1.7042   0.0000   0.0000   0.0000   0.3045
  13.900   0.7221   0.18463   0.17509  -0.0459  0.1677  1.0000  -1.7051   0.0000   0.0000   0.0000   0.3050
  14.000   0.7263   0.18638   0.17687  -0.0462  0.1656  1.0000  -1.7172   0.0000   0.0000   0.0000   0.3049
  14.100   0.7361   0.18959   0.18009  -0.0458  0.1633  1.0000  -1.7565   0.0000   0.0000   0.0000   0.3034
  14.200   0.7349   0.19031   0.18080  -0.0468  0.1628  1.0000  -1.7390   0.0000   0.0000   0.0000   0.3048
  14.300   0.7337   0.19093   0.18140  -0.0478  0.1617  1.0000  -1.7218   0.0000   0.0000   0.0000   0.3062
  14.400   0.7337   0.19178   0.18223  -0.0487  0.1597  1.0000  -1.7118   0.0000   0.0000   0.0000   0.3073
  14.500   0.7363   0.19312   0.18357  -0.0492  0.1572  1.0000  -1.7156   0.0000   0.0000   0.0000   0.3077
  14.600   0.7429   0.19542   0.18589  -0.0491  0.1546  1.0000  -1.7409   0.0000   0.0000   0.0000   0.3069
  14.700   0.7478   0.19765   0.18811  -0.0494  0.1534  1.0000  -1.7539   0.0000   0.0000   0.0000   0.3067
  14.800   0.7470   0.19826   0.18870  -0.0505  0.1526  1.0000  -1.7365   0.0000   0.0000   0.0000   0.3081
  14.900   0.7468   0.19894   0.18937  -0.0515  0.1512  1.0000  -1.7223   0.0000   0.0000   0.0000   0.3094
  15.000   0.7483   0.20002   0.19044  -0.0523  0.1491  1.0000  -1.7184   0.0000   0.0000   0.0000   0.3102


