xflr5 v6.59

 Calculated polar for: NACA 4510

 1 1 Reynolds number fixed          Mach number fixed         

 xtrf =   0.500 (top)        0.250 (bottom)
 Mach =   0.050     Re =     0.200 e 6     Ncrit =   9.000

  alpha     CL        CD       CDp       Cm    Top Xtr Bot Xtr   Cpmin    Chinge    XCp    
 ------- -------- --------- --------- -------- ------- ------- -------- --------- ---------
  -5.000  -0.0812   0.01753   0.00779  -0.1152  0.5000  0.0662  -2.4826   0.0000   0.0000   0.0000  -1.1945
  -4.900  -0.0703   0.01729   0.00754  -0.1152  0.5000  0.0685  -2.4217   0.0000   0.0000   0.0000  -1.4182
  -4.800  -0.0590   0.01706   0.00718  -0.1151  0.5000  0.0712  -2.3694   0.0000   0.0000   0.0000  -1.7342
  -4.700  -0.0485   0.01671   0.00693  -0.1151  0.5000  0.0735  -2.3062   0.0000   0.0000   0.0000  -2.1655
  -4.600  -0.0374   0.01648   0.00666  -0.1151  0.5000  0.0763  -2.2481   0.0000   0.0000   0.0000  -2.8746
  -4.500  -0.0265   0.01617   0.00631  -0.1150  0.5000  0.0790  -2.1940   0.0000   0.0000   0.0000  -4.1677
  -4.400  -0.0156   0.01592   0.00611  -0.1150  0.5000  0.0818  -2.1320   0.0000   0.0000   0.0000  -7.2221
  -4.300  -0.0044   0.01572   0.00583  -0.1150  0.5000  0.0857  -2.0753   0.0000   0.0000   0.0000  -26.0083
  -4.200   0.0063   0.01547   0.00565  -0.1150  0.5000  0.0892  -2.0125   0.0000   0.0000   0.0000  18.7480
  -4.100   0.0174   0.01526   0.00539  -0.1150  0.5000  0.0935  -1.9554   0.0000   0.0000   0.0000   6.9353
  -4.000   0.0283   0.01503   0.00522  -0.1150  0.5000  0.0976  -1.8942   0.0000   0.0000   0.0000   4.3682
  -3.900   0.0393   0.01481   0.00500  -0.1150  0.5000  0.1026  -1.8355   0.0000   0.0000   0.0000   3.2120
  -3.800   0.0505   0.01465   0.00482  -0.1150  0.5000  0.1084  -1.7757   0.0000   0.0000   0.0000   2.5581
  -3.700   0.0614   0.01444   0.00467  -0.1150  0.5000  0.1140  -1.7194   0.0000   0.0000   0.0000   2.1468
  -3.600   0.0724   0.01424   0.00449  -0.1150  0.5000  0.1205  -1.6670   0.0000   0.0000   0.0000   1.8571
  -3.500   0.0835   0.01407   0.00432  -0.1150  0.5000  0.1281  -1.6143   0.0000   0.0000   0.0000   1.6435
  -3.400   0.0946   0.01390   0.00418  -0.1150  0.5000  0.1364  -1.5614   0.0000   0.0000   0.0000   1.4798
  -3.300   0.1057   0.01373   0.00404  -0.1150  0.5000  0.1456  -1.5085   0.0000   0.0000   0.0000   1.3506
  -3.200   0.1167   0.01357   0.00392  -0.1151  0.5000  0.1556  -1.4552   0.0000   0.0000   0.0000   1.2460
  -3.100   0.1278   0.01341   0.00381  -0.1151  0.5000  0.1667  -1.4021   0.0000   0.0000   0.0000   1.1596
  -3.000   0.1389   0.01326   0.00371  -0.1151  0.5000  0.1789  -1.3492   0.0000   0.0000   0.0000   1.0868
  -2.900   0.1500   0.01313   0.00361  -0.1151  0.5000  0.1927  -1.2964   0.0000   0.0000   0.0000   1.0246
  -2.800   0.1611   0.01298   0.00352  -0.1152  0.5000  0.2068  -1.2459   0.0000   0.0000   0.0000   0.9713
  -2.700   0.1722   0.01285   0.00345  -0.1152  0.5000  0.2219  -1.1986   0.0000   0.0000   0.0000   0.9247
  -2.600   0.1833   0.01274   0.00337  -0.1152  0.5000  0.2385  -1.1516   0.0000   0.0000   0.0000   0.8836
  -2.500   0.1945   0.01261   0.00327  -0.1152  0.5000  0.2500  -1.1057   0.0000   0.0000   0.0000   0.8471
  -2.400   0.2058   0.01251   0.00313  -0.1152  0.5000  0.2500  -1.0609   0.0000   0.0000   0.0000   0.8139
  -2.300   0.2171   0.01244   0.00303  -0.1152  0.5000  0.2500  -1.0152   0.0000   0.0000   0.0000   0.7843
  -2.200   0.2284   0.01240   0.00294  -0.1152  0.5000  0.2500  -0.9693   0.0000   0.0000   0.0000   0.7575
  -2.100   0.2396   0.01237   0.00287  -0.1151  0.5000  0.2500  -0.9258   0.0000   0.0000   0.0000   0.7334
  -2.000   0.2509   0.01234   0.00281  -0.1151  0.5000  0.2500  -0.8846   0.0000   0.0000   0.0000   0.7114
  -1.900   0.2622   0.01232   0.00275  -0.1151  0.5000  0.2500  -0.8436   0.0000   0.0000   0.0000   0.6913
  -1.800   0.2735   0.01230   0.00270  -0.1151  0.5000  0.2500  -0.8029   0.0000   0.0000   0.0000   0.6729
  -1.700   0.2847   0.01228   0.00264  -0.1151  0.5000  0.2500  -0.7625   0.0000   0.0000   0.0000   0.6559
  -1.600   0.2960   0.01227   0.00260  -0.1151  0.5000  0.2500  -0.7234   0.0000   0.0000   0.0000   0.6403
  -1.500   0.3073   0.01225   0.00256  -0.1151  0.5000  0.2500  -0.6873   0.0000   0.0000   0.0000   0.6258
  -1.400   0.3185   0.01224   0.00252  -0.1150  0.5000  0.2500  -0.6515   0.0000   0.0000   0.0000   0.6123
  -1.300   0.3298   0.01223   0.00249  -0.1150  0.5000  0.2500  -0.6161   0.0000   0.0000   0.0000   0.5997
  -1.200   0.3410   0.01223   0.00246  -0.1150  0.5000  0.2500  -0.5810   0.0000   0.0000   0.0000   0.5880
  -1.100   0.3522   0.01222   0.00244  -0.1150  0.5000  0.2500  -0.5540   0.0000   0.0000   0.0000   0.5770
  -1.000   0.3635   0.01222   0.00241  -0.1150  0.5000  0.2500  -0.5606   0.0000   0.0000   0.0000   0.5667
  -0.900   0.3747   0.01221   0.00240  -0.1150  0.5000  0.2500  -0.5674   0.0000   0.0000   0.0000   0.5571
  -0.800   0.3859   0.01221   0.00237  -0.1150  0.5000  0.2500  -0.5743   0.0000   0.0000   0.0000   0.5480
  -0.700   0.3971   0.01221   0.00236  -0.1149  0.5000  0.2500  -0.5811   0.0000   0.0000   0.0000   0.5394
  -0.600   0.4084   0.01221   0.00235  -0.1149  0.5000  0.2500  -0.5882   0.0000   0.0000   0.0000   0.5312
  -0.500   0.4196   0.01221   0.00234  -0.1149  0.5000  0.2500  -0.5953   0.0000   0.0000   0.0000   0.5236
  -0.400   0.4308   0.01221   0.00233  -0.1149  0.5000  0.2500  -0.6024   0.0000   0.0000   0.0000   0.5163
  -0.300   0.4420   0.01222   0.00232  -0.1149  0.5000  0.2500  -0.6098   0.0000   0.0000   0.0000   0.5094
  -0.200   0.4532   0.01222   0.00232  -0.1149  0.5000  0.2500  -0.6171   0.0000   0.0000   0.0000   0.5028
  -0.100   0.4643   0.01222   0.00232  -0.1148  0.5000  0.2500  -0.6246   0.0000   0.0000   0.0000   0.4965
   0.000   0.4755   0.01223   0.00232  -0.1148  0.5000  0.2500  -0.6322   0.0000   0.0000   0.0000   0.4906
   0.100   0.4867   0.01224   0.00233  -0.1148  0.5000  0.2500  -0.6398   0.0000   0.0000   0.0000   0.4849
   0.200   0.4979   0.01224   0.00233  -0.1148  0.5000  0.2500  -0.6476   0.0000   0.0000   0.0000   0.4794
   0.300   0.5090   0.01225   0.00234  -0.1148  0.5000  0.2500  -0.6555   0.0000   0.0000   0.0000   0.4742
   0.400   0.5202   0.01226   0.00235  -0.1148  0.5000  0.2500  -0.6635   0.0000   0.0000   0.0000   0.4692
   0.500   0.5314   0.01227   0.00237  -0.1147  0.5000  0.2500  -0.6716   0.0000   0.0000   0.0000   0.4645
   0.600   0.5425   0.01228   0.00238  -0.1147  0.5000  0.2500  -0.6798   0.0000   0.0000   0.0000   0.4599
   0.700   0.5537   0.01230   0.00240  -0.1147  0.5000  0.2500  -0.6882   0.0000   0.0000   0.0000   0.4555
   0.800   0.5648   0.01231   0.00242  -0.1147  0.5000  0.2500  -0.6966   0.0000   0.0000   0.0000   0.4513
   0.900   0.5759   0.01232   0.00244  -0.1146  0.5000  0.2500  -0.7053   0.0000   0.0000   0.0000   0.4472
   1.000   0.5870   0.01234   0.00246  -0.1146  0.5000  0.2500  -0.7140   0.0000   0.0000   0.0000   0.4433
   1.100   0.5982   0.01235   0.00249  -0.1146  0.5000  0.2500  -0.7230   0.0000   0.0000   0.0000   0.4395
   1.200   0.6093   0.01237   0.00252  -0.1146  0.5000  0.2500  -0.7320   0.0000   0.0000   0.0000   0.4359
   1.300   0.6204   0.01238   0.00254  -0.1145  0.5000  0.2500  -0.7414   0.0000   0.0000   0.0000   0.4324
   1.400   0.6315   0.01240   0.00258  -0.1145  0.5000  0.2500  -0.7508   0.0000   0.0000   0.0000   0.4290
   1.500   0.6426   0.01242   0.00261  -0.1145  0.5000  0.2500  -0.7605   0.0000   0.0000   0.0000   0.4258
   1.600   0.6536   0.01244   0.00264  -0.1145  0.5000  0.2500  -0.7703   0.0000   0.0000   0.0000   0.4226
   1.700   0.6647   0.01246   0.00268  -0.1144  0.5000  0.2500  -0.7803   0.0000   0.0000   0.0000   0.4195
   1.800   0.6758   0.01248   0.00273  -0.1144  0.5000  0.2500  -0.7907   0.0000   0.0000   0.0000   0.4166
   1.900   0.6869   0.01250   0.00277  -0.1144  0.5000  0.2500  -0.8013   0.0000   0.0000   0.0000   0.4137
   2.000   0.6979   0.01253   0.00281  -0.1143  0.5000  0.2500  -0.8122   0.0000   0.0000   0.0000   0.4109
   2.100   0.7090   0.01255   0.00286  -0.1143  0.5000  0.2500  -0.8234   0.0000   0.0000   0.0000   0.4082
   2.200   0.7200   0.01257   0.00291  -0.1143  0.5000  0.2500  -0.8351   0.0000   0.0000   0.0000   0.4056
   2.300   0.7310   0.01260   0.00295  -0.1142  0.5000  0.2500  -0.8472   0.0000   0.0000   0.0000   0.4031
   2.400   0.7420   0.01263   0.00301  -0.1142  0.5000  0.2500  -0.8600   0.0000   0.0000   0.0000   0.4006
   2.500   0.7531   0.01265   0.00306  -0.1141  0.5000  0.2500  -0.8736   0.0000   0.0000   0.0000   0.3982
   2.600   0.7641   0.01268   0.00312  -0.1141  0.5000  0.2500  -0.8885   0.0000   0.0000   0.0000   0.3959
   2.700   0.7751   0.01271   0.00319  -0.1141  0.5000  0.2500  -0.9072   0.0000   0.0000   0.0000   0.3936
   2.800   0.7861   0.01274   0.00325  -0.1140  0.5000  0.2500  -0.9311   0.0000   0.0000   0.0000   0.3914
   2.900   0.7970   0.01277   0.00331  -0.1140  0.5000  0.2500  -0.9577   0.0000   0.0000   0.0000   0.3893
   3.000   0.8080   0.01280   0.00337  -0.1139  0.5000  0.2500  -0.9868   0.0000   0.0000   0.0000   0.3872
   3.100   0.8190   0.01283   0.00344  -0.1139  0.5000  0.2500  -1.0180   0.0000   0.0000   0.0000   0.3851
   3.200   0.8299   0.01287   0.00351  -0.1138  0.5000  0.2500  -1.0510   0.0000   0.0000   0.0000   0.3832
   3.300   0.8409   0.01290   0.00358  -0.1138  0.5000  0.2500  -1.0852   0.0000   0.0000   0.0000   0.3812
   3.400   0.8518   0.01294   0.00365  -0.1137  0.5000  0.2500  -1.1218   0.0000   0.0000   0.0000   0.3793
   3.500   0.8627   0.01298   0.00373  -0.1137  0.5000  0.2500  -1.1593   0.0000   0.0000   0.0000   0.3775
   3.600   0.8737   0.01301   0.00382  -0.1136  0.5000  0.2500  -1.1985   0.0000   0.0000   0.0000   0.3757
   3.700   0.8846   0.01305   0.00390  -0.1136  0.5000  0.2500  -1.2397   0.0000   0.0000   0.0000   0.3739
   3.800   0.8955   0.01309   0.00398  -0.1135  0.5000  0.2500  -1.2813   0.0000   0.0000   0.0000   0.3722
   3.900   0.9064   0.01313   0.00407  -0.1134  0.5000  0.2500  -1.3246   0.0000   0.0000   0.0000   0.3705
   4.000   0.9173   0.01318   0.00416  -0.1134  0.5000  0.2500  -1.3706   0.0000   0.0000   0.0000   0.3688
   4.100   0.9281   0.01322   0.00425  -0.1133  0.5000  0.2500  -1.4169   0.0000   0.0000   0.0000   0.3672
   4.200   0.9390   0.01327   0.00434  -0.1132  0.5000  0.2500  -1.4637   0.0000   0.0000   0.0000   0.3656
   4.300   0.9498   0.01331   0.00444  -0.1132  0.5000  0.2500  -1.5120   0.0000   0.0000   0.0000   0.3641
   4.400   0.9607   0.01336   0.00454  -0.1131  0.5000  0.2500  -1.5638   0.0000   0.0000   0.0000   0.3626
   4.500   0.9715   0.01341   0.00466  -0.1130  0.5000  0.2500  -1.6162   0.0000   0.0000   0.0000   0.3611
   4.600   0.9824   0.01346   0.00476  -0.1130  0.5000  0.2500  -1.6690   0.0000   0.0000   0.0000   0.3596
   4.700   0.9932   0.01351   0.00487  -0.1129  0.5000  0.2500  -1.7222   0.0000   0.0000   0.0000   0.3582
   4.800   1.0040   0.01357   0.00498  -0.1128  0.5000  0.2500  -1.7758   0.0000   0.0000   0.0000   0.3568
   4.900   1.0147   0.01362   0.00510  -0.1127  0.5000  0.2500  -1.8331   0.0000   0.0000   0.0000   0.3554
   5.000   1.0255   0.01368   0.00522  -0.1127  0.5000  0.2500  -1.8928   0.0000   0.0000   0.0000   0.3541
   5.100   1.0363   0.01374   0.00534  -0.1126  0.5000  0.2500  -1.9531   0.0000   0.0000   0.0000   0.3527
   5.200   1.0471   0.01380   0.00547  -0.1125  0.5000  0.2500  -2.0139   0.0000   0.0000   0.0000   0.3514
   5.300   1.0578   0.01386   0.00561  -0.1124  0.5000  0.2500  -2.0752   0.0000   0.0000   0.0000   0.3501
   5.400   1.0686   0.01393   0.00574  -0.1123  0.5000  0.2500  -2.1370   0.0000   0.0000   0.0000   0.3489
   5.500   1.0794   0.01399   0.00588  -0.1123  0.5000  0.2500  -2.1993   0.0000   0.0000   0.0000   0.3476
   5.600   1.0902   0.01406   0.00603  -0.1122  0.5000  0.2500  -2.2621   0.0000   0.0000   0.0000   0.3464
   5.700   1.1009   0.01414   0.00617  -0.1121  0.5000  0.2500  -2.3296   0.0000   0.0000   0.0000   0.3452
   5.800   1.1117   0.01421   0.00633  -0.1120  0.5000  0.2500  -2.3995   0.0000   0.0000   0.0000   0.3441
   5.900   1.1225   0.01429   0.00649  -0.1119  0.5000  0.2500  -2.4700   0.0000   0.0000   0.0000   0.3429
   6.000   1.1333   0.01437   0.00665  -0.1118  0.5000  0.2500  -2.5411   0.0000   0.0000   0.0000   0.3418
   6.100   1.1423   0.01450   0.00680  -0.1114  0.4909  0.2500  -2.6076   0.0000   0.0000   0.0000   0.3405
   6.200   1.1496   0.01469   0.00696  -0.1106  0.4744  0.2500  -2.6692   0.0000   0.0000   0.0000   0.3391
   6.400   1.1631   0.01514   0.00728  -0.1089  0.4376  0.2500  -2.7902   0.0000   0.0000   0.0000   0.3362
   6.500   1.1691   0.01540   0.00746  -0.1080  0.4172  0.2500  -2.8487   0.0000   0.0000   0.0000   0.3348
   6.600   1.1749   0.01569   0.00766  -0.1070  0.3952  0.2500  -2.9064   0.0000   0.0000   0.0000   0.3334
   6.700   1.1799   0.01602   0.00789  -0.1059  0.3714  0.2500  -2.9618   0.0000   0.0000   0.0000   0.3320
   6.800   1.1843   0.01640   0.00814  -0.1047  0.3452  0.2500  -3.0152   0.0000   0.0000   0.0000   0.3305
   6.900   1.1882   0.01682   0.00841  -0.1035  0.3166  0.2500  -3.0665   0.0000   0.0000   0.0000   0.3291
   7.000   1.1912   0.01730   0.00873  -0.1021  0.2862  0.2500  -3.1147   0.0000   0.0000   0.0000   0.3276
   7.100   1.1937   0.01784   0.00908  -0.1008  0.2534  0.2500  -3.1657   0.0000   0.0000   0.0000   0.3261
   7.200   1.1954   0.01845   0.00948  -0.0993  0.2194  0.2500  -3.2136   0.0000   0.0000   0.0000   0.3247
   7.300   1.1968   0.01911   0.00993  -0.0978  0.1860  0.2500  -3.2591   0.0000   0.0000   0.0000   0.3232
   7.400   1.1981   0.01979   0.01041  -0.0963  0.1565  0.2500  -3.3036   0.0000   0.0000   0.0000   0.3217
   7.500   1.1997   0.02046   0.01090  -0.0949  0.1337  0.2500  -3.3484   0.0000   0.0000   0.0000   0.3203
   7.600   1.2017   0.02108   0.01139  -0.0935  0.1175  0.2500  -3.3944   0.0000   0.0000   0.0000   0.3189
   7.700   1.2043   0.02162   0.01185  -0.0921  0.1055  0.2500  -3.4415   0.0000   0.0000   0.0000   0.3175
   7.800   1.2067   0.02213   0.01230  -0.0907  0.0970  0.2500  -3.4882   0.0000   0.0000   0.0000   0.3160
   7.900   1.2091   0.02262   0.01275  -0.0893  0.0905  0.2500  -3.5350   0.0000   0.0000   0.0000   0.3146
   8.100   1.2157   0.02357   0.01366  -0.0868  0.0802  0.2500  -3.6362   0.0000   0.0000   0.0000   0.3119
   8.200   1.2189   0.02409   0.01415  -0.0856  0.0763  0.2500  -3.6862   0.0000   0.0000   0.0000   0.3106
   8.300   1.2230   0.02455   0.01461  -0.0846  0.0727  0.2500  -3.7399   0.0000   0.0000   0.0000   0.3094
   8.400   1.2260   0.02509   0.01513  -0.0834  0.0699  0.2500  -3.7887   0.0000   0.0000   0.0000   0.3081
   8.500   1.2305   0.02554   0.01560  -0.0824  0.0670  0.2500  -3.8427   0.0000   0.0000   0.0000   0.3069
   8.600   1.2333   0.02610   0.01613  -0.0812  0.0649  0.2500  -3.8932   0.0000   0.0000   0.0000   0.3057
   8.700   1.2377   0.02657   0.01666  -0.0803  0.0625  0.2500  -3.9453   0.0000   0.0000   0.0000   0.3045
   8.800   1.2421   0.02704   0.01713  -0.0793  0.0602  0.2500  -4.0009   0.0000   0.0000   0.0000   0.3034
   8.900   1.2451   0.02761   0.01767  -0.0783  0.0585  0.2500  -4.0535   0.0000   0.0000   0.0000   0.3023
   9.000   1.2495   0.02811   0.01821  -0.0773  0.0567  0.2500  -4.1057   0.0000   0.0000   0.0000   0.3012
   9.100   1.2544   0.02857   0.01870  -0.0764  0.0548  0.2500  -4.1616   0.0000   0.0000   0.0000   0.3001
   9.200   1.2585   0.02909   0.01921  -0.0755  0.0533  0.2500  -4.2175   0.0000   0.0000   0.0000   0.2990
   9.300   1.2615   0.02976   0.01983  -0.0745  0.0522  0.2500  -4.2684   0.0000   0.0000   0.0000   0.2980
   9.400   1.2666   0.03026   0.02040  -0.0737  0.0509  0.2500  -4.3205   0.0000   0.0000   0.0000   0.2969
   9.500   1.2719   0.03076   0.02094  -0.0729  0.0496  0.2500  -4.3831   0.0000   0.0000   0.0000   0.2959
   9.600   1.2769   0.03127   0.02147  -0.0721  0.0484  0.2500  -4.4484   0.0000   0.0000   0.0000   0.2949
   9.700   1.2818   0.03182   0.02199  -0.0713  0.0473  0.2500  -4.5163   0.0000   0.0000   0.0000   0.2940
   9.800   1.2870   0.03256   0.02265  -0.0706  0.0462  0.2500  -4.5843   0.0000   0.0000   0.0000   0.2931
   9.900   1.2926   0.03300   0.02321  -0.0699  0.0451  0.2500  -4.6469   0.0000   0.0000   0.0000   0.2921
  10.000   1.2982   0.03349   0.02377  -0.0692  0.0440  0.2500  -4.7127   0.0000   0.0000   0.0000   0.2911
  10.100   1.3037   0.03399   0.02430  -0.0685  0.0429  0.2500  -4.7826   0.0000   0.0000   0.0000   0.2903
  10.200   1.3095   0.03451   0.02481  -0.0679  0.0419  0.2500  -4.8570   0.0000   0.0000   0.0000   0.2894
  10.300   1.3172   0.03521   0.02542  -0.0675  0.0410  0.2500  -4.9396   0.0000   0.0000   0.0000   0.2887
  10.400   1.3242   0.03582   0.02610  -0.0669  0.0402  0.2500  -5.0050   0.0000   0.0000   0.0000   0.2878
  10.500   1.3308   0.03639   0.02676  -0.0663  0.0395  0.2500  -5.0684   0.0000   0.0000   0.0000   0.2870
  10.600   1.3378   0.03697   0.02741  -0.0657  0.0387  0.2500  -5.1362   0.0000   0.0000   0.0000   0.2861
  10.700   1.3451   0.03757   0.02805  -0.0652  0.0380  0.2500  -5.2076   0.0000   0.0000   0.0000   0.2854
  10.800   1.3524   0.03816   0.02868  -0.0648  0.0374  0.2500  -5.2814   0.0000   0.0000   0.0000   0.2846
  10.900   1.3602   0.03876   0.02929  -0.0644  0.0367  0.2500  -5.3616   0.0000   0.0000   0.0000   0.2839
  11.000   1.3724   0.03952   0.02999  -0.0646  0.0360  0.2500  -5.4649   0.0000   0.0000   0.0000   0.2835
  11.100   1.3812   0.04037   0.03091  -0.0643  0.0353  0.2500  -5.5345   0.0000   0.0000   0.0000   0.2829
  11.200   1.3846   0.04103   0.03172  -0.0633  0.0348  0.2500  -5.5798   0.0000   0.0000   0.0000   0.2819
  11.300   1.3888   0.04172   0.03253  -0.0625  0.0342  0.2500  -5.6309   0.0000   0.0000   0.0000   0.2810
  11.400   1.3934   0.04240   0.03331  -0.0618  0.0336  0.2500  -5.6885   0.0000   0.0000   0.0000   0.2801
  11.500   1.3985   0.04306   0.03402  -0.0611  0.0330  0.2500  -5.7536   0.0000   0.0000   0.0000   0.2794
  11.600   1.4045   0.04368   0.03467  -0.0606  0.0324  0.2500  -5.8285   0.0000   0.0000   0.0000   0.2787
  11.700   1.4108   0.04435   0.03536  -0.0601  0.0319  0.2500  -5.9044   0.0000   0.0000   0.0000   0.2780
  11.800   1.4188   0.04513   0.03616  -0.0599  0.0315  0.2500  -5.9865   0.0000   0.0000   0.0000   0.2774
  11.900   1.4383   0.04663   0.03761  -0.0611  0.0309  0.2500  -6.1071   0.0000   0.0000   0.0000   0.2776
  12.000   1.4378   0.04748   0.03861  -0.0598  0.0307  0.2500  -6.1291   0.0000   0.0000   0.0000   0.2765
  12.100   1.4379   0.04841   0.03972  -0.0585  0.0305  0.2500  -6.1504   0.0000   0.0000   0.0000   0.2755
  12.200   1.4382   0.04942   0.04089  -0.0574  0.0303  0.2500  -6.1762   0.0000   0.0000   0.0000   0.2745
  12.300   1.4385   0.05050   0.04211  -0.0562  0.0302  0.2500  -6.2059   0.0000   0.0000   0.0000   0.2736
  12.400   1.4385   0.05163   0.04339  -0.0551  0.0300  0.2500  -6.2331   0.0000   0.0000   0.0000   0.2726
  12.500   1.4380   0.05280   0.04472  -0.0540  0.0298  0.2500  -6.2573   0.0000   0.0000   0.0000   0.2717
  12.600   1.4369   0.05403   0.04608  -0.0529  0.0297  0.2500  -6.2783   0.0000   0.0000   0.0000   0.2708
  12.700   1.4353   0.05529   0.04748  -0.0518  0.0296  0.2500  -6.2959   0.0000   0.0000   0.0000   0.2699
  12.800   1.4330   0.05660   0.04893  -0.0507  0.0295  0.2500  -6.3100   0.0000   0.0000   0.0000   0.2691
  12.900   1.4302   0.05795   0.05041  -0.0496  0.0294  0.2500  -6.3203   0.0000   0.0000   0.0000   0.2682
  13.000   1.4267   0.05934   0.05194  -0.0485  0.0293  0.2500  -6.3272   0.0000   0.0000   0.0000   0.2674
  13.100   1.4227   0.06077   0.05350  -0.0475  0.0293  0.2500  -6.3309   0.0000   0.0000   0.0000   0.2666
  13.200   1.4181   0.06224   0.05509  -0.0465  0.0292  0.2500  -6.3319   0.0000   0.0000   0.0000   0.2659
  13.300   1.4130   0.06375   0.05673  -0.0455  0.0292  0.2500  -6.3301   0.0000   0.0000   0.0000   0.2651
  13.400   1.4074   0.06531   0.05840  -0.0446  0.0291  0.2500  -6.3257   0.0000   0.0000   0.0000   0.2645
  13.500   1.4014   0.06691   0.06013  -0.0438  0.0291  0.2500  -6.3187   0.0000   0.0000   0.0000   0.2638
  13.600   1.3950   0.06857   0.06191  -0.0431  0.0290  0.2500  -6.3090   0.0000   0.0000   0.0000   0.2633
  13.700   1.3882   0.07029   0.06374  -0.0424  0.0290  0.2500  -6.2966   0.0000   0.0000   0.0000   0.2628
  13.800   1.3809   0.07207   0.06563  -0.0418  0.0290  0.2500  -6.2814   0.0000   0.0000   0.0000   0.2624
  13.900   1.3733   0.07392   0.06759  -0.0414  0.0289  0.2500  -6.2634   0.0000   0.0000   0.0000   0.2620
  14.000   1.3654   0.07585   0.06963  -0.0410  0.0289  0.2500  -6.2426   0.0000   0.0000   0.0000   0.2618
  14.100   1.3571   0.07785   0.07174  -0.0408  0.0289  0.2500  -6.2187   0.0000   0.0000   0.0000   0.2616
  14.200   1.3484   0.07993   0.07393  -0.0407  0.0289  0.2500  -6.1918   0.0000   0.0000   0.0000   0.2616
  14.300   1.3395   0.08210   0.07620  -0.0407  0.0290  0.2500  -6.1618   0.0000   0.0000   0.0000   0.2616
  14.400   1.3303   0.08437   0.07856  -0.0409  0.0290  0.2500  -6.1289   0.0000   0.0000   0.0000   0.2617
  14.500   1.3208   0.08672   0.08102  -0.0412  0.0290  0.2500  -6.0931   0.0000   0.0000   0.0000   0.2620
  14.600   1.3112   0.08917   0.08357  -0.0416  0.0291  0.2500  -6.0546   0.0000   0.0000   0.0000   0.2624
  14.700   1.3013   0.09171   0.08620  -0.0422  0.0292  0.2500  -6.0132   0.0000   0.0000   0.0000   0.2629
  14.800   1.2910   0.09438   0.08897  -0.0430  0.0292  0.2500  -5.9667   0.0000   0.0000   0.0000   0.2636
  14.900   1.2807   0.09715   0.09182  -0.0439  0.0293  0.2500  -5.9185   0.0000   0.0000   0.0000   0.2644
  15.000   1.2704   0.10001   0.09477  -0.0450  0.0294  0.2500  -5.8687   0.0000   0.0000   0.0000   0.2654


