xflr5 v6.59

 Calculated polar for: NACA 0008

 1 1 Reynolds number fixed          Mach number fixed         

 xtrf =   1.000 (top)        1.000 (bottom)
 Mach =   0.050     Re =     0.080 e 6     Ncrit =   5.000

  alpha     CL        CD       CDp       Cm    Top Xtr Bot Xtr   Cpmin    Chinge    XCp    
 ------- -------- --------- --------- -------- ------- ------- -------- --------- ---------
  -3.000  -0.3717   0.01335   0.00512   0.0057  1.0000  0.6268  -1.4231   0.0000   0.0000   0.0000   0.2629
  -2.900  -0.3630   0.01321   0.00508   0.0065  1.0000  0.6564  -1.3668   0.0000   0.0000   0.0000   0.2654
  -2.800  -0.3542   0.01309   0.00505   0.0073  1.0000  0.6848  -1.3106   0.0000   0.0000   0.0000   0.2681
  -2.700  -0.3452   0.01299   0.00502   0.0081  1.0000  0.7119  -1.2543   0.0000   0.0000   0.0000   0.2710
  -2.600  -0.3359   0.01291   0.00500   0.0088  1.0000  0.7377  -1.2021   0.0000   0.0000   0.0000   0.2739
  -2.500  -0.3263   0.01285   0.00498   0.0095  1.0000  0.7624  -1.1513   0.0000   0.0000   0.0000   0.2769
  -2.400  -0.3164   0.01280   0.00495   0.0102  1.0000  0.7861  -1.1000   0.0000   0.0000   0.0000   0.2798
  -2.300  -0.3055   0.01277   0.00494   0.0106  1.0000  0.8080  -1.0471   0.0000   0.0000   0.0000   0.2825
  -2.200  -0.2942   0.01275   0.00493   0.0110  1.0000  0.8290  -0.9939   0.0000   0.0000   0.0000   0.2850
  -2.100  -0.2816   0.01275   0.00492   0.0110  1.0000  0.8485  -0.9414   0.0000   0.0000   0.0000   0.2870
  -2.000  -0.2687   0.01275   0.00491   0.0110  1.0000  0.8669  -0.8913   0.0000   0.0000   0.0000   0.2887
  -1.900  -0.2541   0.01275   0.00489   0.0106  1.0000  0.8833  -0.8382   0.0000   0.0000   0.0000   0.2895
  -1.800  -0.2391   0.01276   0.00487   0.0100  1.0000  0.8989  -0.7863   0.0000   0.0000   0.0000   0.2898
  -1.700  -0.2239   0.01277   0.00484   0.0094  1.0000  0.9135  -0.7386   0.0000   0.0000   0.0000   0.2897
  -1.600  -0.2068   0.01278   0.00479   0.0083  1.0000  0.9262  -0.6884   0.0000   0.0000   0.0000   0.2881
  -1.500  -0.1894   0.01279   0.00475   0.0071  1.0000  0.9379  -0.6417   0.0000   0.0000   0.0000   0.2855
  -1.400  -0.1716   0.01279   0.00470   0.0058  1.0000  0.9488  -0.5959   0.0000   0.0000   0.0000   0.2818
  -1.300  -0.1532   0.01278   0.00465   0.0044  1.0000  0.9588  -0.5538   0.0000   0.0000   0.0000   0.2763
  -1.200  -0.1341   0.01277   0.00460   0.0027  1.0000  0.9678  -0.5130   0.0000   0.0000   0.0000   0.2679
  -1.100  -0.1141   0.01275   0.00454   0.0008  1.0000  0.9759  -0.4741   0.0000   0.0000   0.0000   0.2548
  -1.000  -0.0939   0.01272   0.00447  -0.0011  1.0000  0.9834  -0.4383   0.0000   0.0000   0.0000   0.2355
  -0.900  -0.0738   0.01269   0.00439  -0.0031  1.0000  0.9905  -0.4056   0.0000   0.0000   0.0000   0.2050
  -0.800  -0.0535   0.01265   0.00432  -0.0051  1.0000  0.9974  -0.3758   0.0000   0.0000   0.0000   0.1506
  -0.700  -0.0414   0.01259   0.00426  -0.0056  1.0000  1.0000  -0.3562   0.0000   0.0000   0.0000   0.1114
  -0.600  -0.0353   0.01255   0.00420  -0.0049  1.0000  1.0000  -0.3430   0.0000   0.0000   0.0000   0.1087
  -0.500  -0.0293   0.01251   0.00416  -0.0041  1.0000  1.0000  -0.3306   0.0000   0.0000   0.0000   0.1065
  -0.400  -0.0233   0.01249   0.00413  -0.0033  1.0000  1.0000  -0.3190   0.0000   0.0000   0.0000   0.1049
  -0.300  -0.0175   0.01246   0.00410  -0.0025  1.0000  1.0000  -0.3081   0.0000   0.0000   0.0000   0.1040
  -0.200  -0.0117   0.01245   0.00408  -0.0017  1.0000  1.0000  -0.2979   0.0000   0.0000   0.0000   0.1040
  -0.100  -0.0058   0.01244   0.00407  -0.0008  1.0000  1.0000  -0.2881   0.0000   0.0000   0.0000   0.1050
   0.000   0.0000   0.01243   0.00407  -0.0000  1.0000  1.0000  -0.2789   0.0000   0.0000   0.0000   0.4238
   0.100   0.0058   0.01244   0.00407   0.0008  1.0000  1.0000  -0.2881   0.0000   0.0000   0.0000   0.1050
   0.200   0.0117   0.01245   0.00408   0.0017  1.0000  1.0000  -0.2979   0.0000   0.0000   0.0000   0.1041
   0.300   0.0175   0.01246   0.00410   0.0025  1.0000  1.0000  -0.3081   0.0000   0.0000   0.0000   0.1041
   0.400   0.0233   0.01249   0.00413   0.0033  1.0000  1.0000  -0.3190   0.0000   0.0000   0.0000   0.1049
   0.500   0.0293   0.01251   0.00416   0.0041  1.0000  1.0000  -0.3306   0.0000   0.0000   0.0000   0.1065
   0.600   0.0353   0.01255   0.00420   0.0049  1.0000  1.0000  -0.3430   0.0000   0.0000   0.0000   0.1087
   0.700   0.0414   0.01259   0.00425   0.0056  1.0000  1.0000  -0.3562   0.0000   0.0000   0.0000   0.1114
   0.800   0.0535   0.01264   0.00432   0.0051  0.9974  1.0000  -0.3758   0.0000   0.0000   0.0000   0.1506
   0.900   0.0738   0.01269   0.00439   0.0031  0.9906  1.0000  -0.4056   0.0000   0.0000   0.0000   0.2050
   1.000   0.0939   0.01272   0.00447   0.0011  0.9834  1.0000  -0.4383   0.0000   0.0000   0.0000   0.2355
   1.100   0.1141   0.01275   0.00454  -0.0008  0.9759  1.0000  -0.4741   0.0000   0.0000   0.0000   0.2548
   1.200   0.1341   0.01277   0.00460  -0.0027  0.9679  1.0000  -0.5130   0.0000   0.0000   0.0000   0.2679
   1.300   0.1532   0.01278   0.00465  -0.0044  0.9588  1.0000  -0.5538   0.0000   0.0000   0.0000   0.2763
   1.400   0.1716   0.01279   0.00470  -0.0058  0.9488  1.0000  -0.5959   0.0000   0.0000   0.0000   0.2817
   1.500   0.1894   0.01279   0.00474  -0.0071  0.9379  1.0000  -0.6417   0.0000   0.0000   0.0000   0.2855
   1.600   0.2068   0.01278   0.00479  -0.0083  0.9262  1.0000  -0.6883   0.0000   0.0000   0.0000   0.2881
   1.700   0.2238   0.01277   0.00484  -0.0094  0.9135  1.0000  -0.7386   0.0000   0.0000   0.0000   0.2897
   1.800   0.2391   0.01276   0.00487  -0.0100  0.8989  1.0000  -0.7863   0.0000   0.0000   0.0000   0.2898
   1.900   0.2541   0.01275   0.00489  -0.0106  0.8833  1.0000  -0.8382   0.0000   0.0000   0.0000   0.2894
   2.000   0.2687   0.01275   0.00491  -0.0110  0.8669  1.0000  -0.8913   0.0000   0.0000   0.0000   0.2887
   2.100   0.2816   0.01275   0.00492  -0.0110  0.8485  1.0000  -0.9413   0.0000   0.0000   0.0000   0.2870
   2.200   0.2942   0.01275   0.00493  -0.0110  0.8291  1.0000  -0.9938   0.0000   0.0000   0.0000   0.2850
   2.300   0.3055   0.01277   0.00494  -0.0106  0.8081  1.0000  -1.0471   0.0000   0.0000   0.0000   0.2825
   2.400   0.3164   0.01280   0.00495  -0.0102  0.7862  1.0000  -1.1000   0.0000   0.0000   0.0000   0.2798
   2.500   0.3263   0.01285   0.00498  -0.0095  0.7625  1.0000  -1.1512   0.0000   0.0000   0.0000   0.2769
   2.600   0.3359   0.01291   0.00500  -0.0088  0.7378  1.0000  -1.2021   0.0000   0.0000   0.0000   0.2739
   2.700   0.3452   0.01299   0.00502  -0.0081  0.7119  1.0000  -1.2543   0.0000   0.0000   0.0000   0.2710
   2.800   0.3542   0.01309   0.00505  -0.0073  0.6849  1.0000  -1.3105   0.0000   0.0000   0.0000   0.2681
   2.900   0.3630   0.01321   0.00508  -0.0065  0.6565  1.0000  -1.3667   0.0000   0.0000   0.0000   0.2654
   3.000   0.3717   0.01335   0.00512  -0.0057  0.6269  1.0000  -1.4230   0.0000   0.0000   0.0000   0.2628
   3.100   0.3802   0.01350   0.00518  -0.0050  0.5959  1.0000  -1.4796   0.0000   0.0000   0.0000   0.2605
   3.200   0.3888   0.01368   0.00524  -0.0043  0.5637  1.0000  -1.5363   0.0000   0.0000   0.0000   0.2583
   3.300   0.3976   0.01388   0.00531  -0.0036  0.5301  1.0000  -1.5942   0.0000   0.0000   0.0000   0.2564
   3.400   0.4063   0.01409   0.00542  -0.0030  0.4951  1.0000  -1.6524   0.0000   0.0000   0.0000   0.2547
   3.500   0.4150   0.01433   0.00552  -0.0025  0.4591  1.0000  -1.7126   0.0000   0.0000   0.0000   0.2531
   3.600   0.4237   0.01458   0.00563  -0.0020  0.4218  1.0000  -1.7781   0.0000   0.0000   0.0000   0.2517
   3.700   0.4323   0.01486   0.00575  -0.0015  0.3837  1.0000  -1.8438   0.0000   0.0000   0.0000   0.2504
   3.800   0.4408   0.01517   0.00589  -0.0010  0.3447  1.0000  -1.9096   0.0000   0.0000   0.0000   0.2493
   3.900   0.4494   0.01550   0.00605  -0.0006  0.3055  1.0000  -1.9755   0.0000   0.0000   0.0000   0.2483
   4.000   0.4580   0.01585   0.00623  -0.0003  0.2666  1.0000  -2.0413   0.0000   0.0000   0.0000   0.2474
   4.100   0.4667   0.01623   0.00643   0.0001  0.2298  1.0000  -2.1067   0.0000   0.0000   0.0000   0.2466
   4.200   0.4753   0.01663   0.00666   0.0004  0.1965  1.0000  -2.1718   0.0000   0.0000   0.0000   0.2459
   4.300   0.4841   0.01704   0.00692   0.0007  0.1685  1.0000  -2.2362   0.0000   0.0000   0.0000   0.2452
   4.400   0.4928   0.01746   0.00723   0.0010  0.1461  1.0000  -2.2999   0.0000   0.0000   0.0000   0.2446
   4.500   0.5017   0.01787   0.00754   0.0013  0.1288  1.0000  -2.3629   0.0000   0.0000   0.0000   0.2439
   4.600   0.5106   0.01827   0.00786   0.0016  0.1153  1.0000  -2.4255   0.0000   0.0000   0.0000   0.2433
   4.700   0.5195   0.01867   0.00821   0.0020  0.1045  1.0000  -2.4893   0.0000   0.0000   0.0000   0.2426
   4.800   0.5285   0.01906   0.00856   0.0023  0.0958  1.0000  -2.5611   0.0000   0.0000   0.0000   0.2419
   4.900   0.5374   0.01945   0.00893   0.0027  0.0887  1.0000  -2.6325   0.0000   0.0000   0.0000   0.2413
   5.000   0.5464   0.01985   0.00931   0.0030  0.0828  1.0000  -2.7039   0.0000   0.0000   0.0000   0.2407
   5.100   0.5552   0.02026   0.00968   0.0034  0.0778  1.0000  -2.7772   0.0000   0.0000   0.0000   0.2401
   5.200   0.5643   0.02064   0.01011   0.0038  0.0731  1.0000  -2.8468   0.0000   0.0000   0.0000   0.2394
   5.300   0.5731   0.02107   0.01053   0.0041  0.0695  1.0000  -2.9169   0.0000   0.0000   0.0000   0.2388
   5.400   0.5821   0.02148   0.01097   0.0045  0.0658  1.0000  -2.9890   0.0000   0.0000   0.0000   0.2383
   5.500   0.5911   0.02191   0.01142   0.0049  0.0626  1.0000  -3.0597   0.0000   0.0000   0.0000   0.2377
   5.600   0.6001   0.02234   0.01187   0.0052  0.0598  1.0000  -3.1302   0.0000   0.0000   0.0000   0.2371
   5.700   0.6088   0.02283   0.01233   0.0056  0.0579  1.0000  -3.2019   0.0000   0.0000   0.0000   0.2366
   5.800   0.6181   0.02333   0.01292   0.0060  0.0554  1.0000  -3.2631   0.0000   0.0000   0.0000   0.2360
   5.900   0.6271   0.02378   0.01338   0.0063  0.0532  1.0000  -3.3367   0.0000   0.0000   0.0000   0.2356
   6.000   0.6360   0.02429   0.01389   0.0066  0.0512  1.0000  -3.4087   0.0000   0.0000   0.0000   0.2351
   6.100   0.6454   0.02481   0.01450   0.0070  0.0490  1.0000  -3.4720   0.0000   0.0000   0.0000   0.2347
   6.200   0.6544   0.02535   0.01506   0.0073  0.0475  1.0000  -3.5409   0.0000   0.0000   0.0000   0.2343
   6.300   0.6634   0.02594   0.01563   0.0076  0.0465  1.0000  -3.6123   0.0000   0.0000   0.0000   0.2339
   6.400   0.6728   0.02664   0.01646   0.0080  0.0453  1.0000  -3.6629   0.0000   0.0000   0.0000   0.2334
   6.500   0.6821   0.02732   0.01726   0.0084  0.0438  1.0000  -3.7266   0.0000   0.0000   0.0000   0.2330
   6.600   0.6912   0.02791   0.01791   0.0087  0.0424  1.0000  -3.8080   0.0000   0.0000   0.0000   0.2326
   6.700   0.7000   0.02844   0.01842   0.0089  0.0411  1.0000  -3.9032   0.0000   0.0000   0.0000   0.2324
   6.800   0.7090   0.02921   0.01935   0.0092  0.0398  1.0000  -3.9661   0.0000   0.0000   0.0000   0.2320
   6.900   0.7179   0.03004   0.02035   0.0096  0.0386  1.0000  -4.0242   0.0000   0.0000   0.0000   0.2315
   7.000   0.7266   0.03090   0.02133   0.0100  0.0379  1.0000  -4.0843   0.0000   0.0000   0.0000   0.2311
   7.100   0.7352   0.03175   0.02229   0.0103  0.0372  1.0000  -4.1480   0.0000   0.0000   0.0000   0.2308
   7.200   0.7437   0.03258   0.02320   0.0106  0.0366  1.0000  -4.2158   0.0000   0.0000   0.0000   0.2304
   7.300   0.7519   0.03342   0.02411   0.0109  0.0361  1.0000  -4.2864   0.0000   0.0000   0.0000   0.2301
   7.400   0.7598   0.03437   0.02514   0.0113  0.0355  1.0000  -4.3500   0.0000   0.0000   0.0000   0.2298
   7.500   0.7667   0.03570   0.02682   0.0118  0.0349  1.0000  -4.3599   0.0000   0.0000   0.0000   0.2292
   7.600   0.7731   0.03700   0.02838   0.0123  0.0340  1.0000  -4.3782   0.0000   0.0000   0.0000   0.2286
   7.700   0.7795   0.03815   0.02975   0.0127  0.0332  1.0000  -4.4124   0.0000   0.0000   0.0000   0.2281
   7.800   0.7860   0.03913   0.03087   0.0131  0.0324  1.0000  -4.4661   0.0000   0.0000   0.0000   0.2277
   7.900   0.7928   0.03994   0.03175   0.0134  0.0317  1.0000  -4.5402   0.0000   0.0000   0.0000   0.2274
   8.000   0.8000   0.04065   0.03247   0.0136  0.0312  1.0000  -4.6305   0.0000   0.0000   0.0000   0.2272
   8.100   0.8056   0.04182   0.03375   0.0139  0.0308  1.0000  -4.6759   0.0000   0.0000   0.0000   0.2269
   8.200   0.8090   0.04356   0.03576   0.0144  0.0306  1.0000  -4.6580   0.0000   0.0000   0.0000   0.2263
   8.300   0.8116   0.04536   0.03784   0.0149  0.0304  1.0000  -4.6350   0.0000   0.0000   0.0000   0.2257
   8.400   0.8134   0.04724   0.03997   0.0154  0.0303  1.0000  -4.6076   0.0000   0.0000   0.0000   0.2252
   8.500   0.8144   0.04916   0.04212   0.0157  0.0302  1.0000  -4.5775   0.0000   0.0000   0.0000   0.2247
   8.600   0.8146   0.05111   0.04429   0.0160  0.0301  1.0000  -4.5446   0.0000   0.0000   0.0000   0.2243
   8.700   0.8141   0.05311   0.04648   0.0163  0.0301  1.0000  -4.5088   0.0000   0.0000   0.0000   0.2239
   8.800   0.8127   0.05513   0.04868   0.0164  0.0301  1.0000  -4.4704   0.0000   0.0000   0.0000   0.2237
   8.900   0.8106   0.05718   0.05089   0.0165  0.0301  1.0000  -4.4295   0.0000   0.0000   0.0000   0.2235
   9.000   0.8077   0.05925   0.05311   0.0164  0.0301  1.0000  -4.3866   0.0000   0.0000   0.0000   0.2234
   9.100   0.8040   0.06134   0.05531   0.0163  0.0301  1.0000  -4.3418   0.0000   0.0000   0.0000   0.2235
   9.200   0.7996   0.06343   0.05752   0.0160  0.0301  1.0000  -4.2954   0.0000   0.0000   0.0000   0.2237
   9.300   0.7945   0.06553   0.05971   0.0155  0.0302  1.0000  -4.2477   0.0000   0.0000   0.0000   0.2241
   9.400   0.7887   0.06759   0.06185   0.0150  0.0303  1.0000  -4.1996   0.0000   0.0000   0.0000   0.2245
   9.500   0.7820   0.06959   0.06390   0.0145  0.0303  1.0000  -4.1521   0.0000   0.0000   0.0000   0.2249
   9.600   0.7752   0.07173   0.06609   0.0135  0.0304  1.0000  -4.1022   0.0000   0.0000   0.0000   0.2260
   9.700   0.7686   0.07408   0.06848   0.0119  0.0305  1.0000  -4.0491   0.0000   0.0000   0.0000   0.2277
   9.800   0.7625   0.07665   0.07108   0.0099  0.0306  1.0000  -3.9924   0.0000   0.0000   0.0000   0.2302
   9.900   0.7571   0.07944   0.07389   0.0075  0.0307  1.0000  -3.9329   0.0000   0.0000   0.0000   0.2332
  10.000   0.7524   0.08237   0.07683   0.0049  0.0308  1.0000  -3.8721   0.0000   0.0000   0.0000   0.2364
  10.200   0.7223   0.09775   0.09218  -0.0076  0.0326  1.0000  -3.2063   0.0000   0.0000   0.0000   0.2537
  10.300   0.7186   0.10073   0.09512  -0.0094  0.0328  1.0000  -3.1281   0.0000   0.0000   0.0000   0.2562
  10.400   0.7156   0.10349   0.09785  -0.0110  0.0330  1.0000  -3.0611   0.0000   0.0000   0.0000   0.2584
  10.500   0.7131   0.10610   0.10044  -0.0124  0.0333  1.0000  -3.0014   0.0000   0.0000   0.0000   0.2604
  10.600   0.7110   0.10858   0.10290  -0.0137  0.0335  1.0000  -2.9484   0.0000   0.0000   0.0000   0.2622
  10.700   0.7093   0.11096   0.10526  -0.0149  0.0337  1.0000  -2.9006   0.0000   0.0000   0.0000   0.2639
  10.800   0.7079   0.11325   0.10754  -0.0160  0.0339  1.0000  -2.8574   0.0000   0.0000   0.0000   0.2654
  10.900   0.7068   0.11548   0.10975  -0.0170  0.0341  1.0000  -2.8178   0.0000   0.0000   0.0000   0.2669
  11.000   0.7060   0.11764   0.11189  -0.0180  0.0343  1.0000  -2.7820   0.0000   0.0000   0.0000   0.2682
  11.100   0.7054   0.11973   0.11397  -0.0189  0.0345  1.0000  -2.7502   0.0000   0.0000   0.0000   0.2695
  11.200   0.7051   0.12176   0.11600  -0.0197  0.0347  1.0000  -2.7214   0.0000   0.0000   0.0000   0.2706
  11.300   0.7050   0.12377   0.11799  -0.0206  0.0348  1.0000  -2.6947   0.0000   0.0000   0.0000   0.2717
  11.400   0.7050   0.12574   0.11996  -0.0214  0.0349  1.0000  -2.6694   0.0000   0.0000   0.0000   0.2728
  11.500   0.7051   0.12770   0.12191  -0.0221  0.0350  1.0000  -2.6449   0.0000   0.0000   0.0000   0.2738
  11.600   0.7052   0.12965   0.12385  -0.0229  0.0351  1.0000  -2.6204   0.0000   0.0000   0.0000   0.2749
  11.700   0.7055   0.13160   0.12579  -0.0237  0.0352  1.0000  -2.5955   0.0000   0.0000   0.0000   0.2759
  11.800   0.7057   0.13356   0.12773  -0.0245  0.0352  1.0000  -2.5708   0.0000   0.0000   0.0000   0.2770
  11.900   0.7060   0.13551   0.12970  -0.0254  0.0353  1.0000  -2.5510   0.0000   0.0000   0.0000   0.2781
  12.000   0.7063   0.13746   0.13164  -0.0262  0.0353  1.0000  -2.5307   0.0000   0.0000   0.0000   0.2792
  12.100   0.7067   0.13941   0.13358  -0.0270  0.0353  1.0000  -2.5102   0.0000   0.0000   0.0000   0.2803
  12.200   0.7071   0.14134   0.13550  -0.0279  0.0353  1.0000  -2.4900   0.0000   0.0000   0.0000   0.2814
  12.300   0.7077   0.14324   0.13740  -0.0287  0.0353  1.0000  -2.4712   0.0000   0.0000   0.0000   0.2824
  12.400   0.7085   0.14512   0.13926  -0.0294  0.0353  1.0000  -2.4547   0.0000   0.0000   0.0000   0.2834
  12.500   0.7095   0.14693   0.14108  -0.0302  0.0354  1.0000  -2.4424   0.0000   0.0000   0.0000   0.2843
  12.600   0.7110   0.14867   0.14281  -0.0308  0.0354  1.0000  -2.4377   0.0000   0.0000   0.0000   0.2850
  12.700   0.7132   0.15023   0.14437  -0.0311  0.0356  1.0000  -2.4489   0.0000   0.0000   0.0000   0.2852
  13.500   0.7261   0.16915   0.16331  -0.0376  0.0581  1.0000  -2.1031   0.0000   0.0000   0.0000   0.2930
  13.600   0.7270   0.17084   0.16499  -0.0385  0.0580  1.0000  -2.0839   0.0000   0.0000   0.0000   0.2942
  13.700   0.7277   0.17250   0.16664  -0.0396  0.0580  1.0000  -2.0623   0.0000   0.0000   0.0000   0.2955
  13.800   0.7282   0.17410   0.16823  -0.0406  0.0579  1.0000  -2.0392   0.0000   0.0000   0.0000   0.2969
  13.900   0.7286   0.17565   0.16977  -0.0417  0.0578  1.0000  -2.0149   0.0000   0.0000   0.0000   0.2982
  14.000   0.7290   0.17718   0.17129  -0.0428  0.0576  1.0000  -1.9894   0.0000   0.0000   0.0000   0.2996
  14.100   0.7294   0.17869   0.17279  -0.0440  0.0574  1.0000  -1.9627   0.0000   0.0000   0.0000   0.3011
  14.200   0.7300   0.18019   0.17428  -0.0451  0.0570  1.0000  -1.9371   0.0000   0.0000   0.0000   0.3025
  14.300   0.7312   0.18167   0.17575  -0.0462  0.0564  1.0000  -1.9185   0.0000   0.0000   0.0000   0.3037
  14.400   0.7329   0.18317   0.17725  -0.0470  0.0558  1.0000  -1.9073   0.0000   0.0000   0.0000   0.3047
  14.500   0.7350   0.18467   0.17875  -0.0478  0.0552  1.0000  -1.9011   0.0000   0.0000   0.0000   0.3055
  14.600   0.7374   0.18615   0.18023  -0.0485  0.0547  1.0000  -1.8986   0.0000   0.0000   0.0000   0.3061
  14.700   0.7400   0.18763   0.18170  -0.0491  0.0541  1.0000  -1.8994   0.0000   0.0000   0.0000   0.3066
  14.800   0.7428   0.18909   0.18316  -0.0497  0.0537  1.0000  -1.9040   0.0000   0.0000   0.0000   0.3071
  14.900   0.7460   0.19058   0.18466  -0.0502  0.0532  1.0000  -1.9141   0.0000   0.0000   0.0000   0.3073
  15.000   0.7500   0.19213   0.18622  -0.0503  0.0526  1.0000  -1.9381   0.0000   0.0000   0.0000   0.3071


