xflr5 v6.59

 Calculated polar for: NACA 0008

 1 1 Reynolds number fixed          Mach number fixed         

 xtrf =   1.000 (top)        1.000 (bottom)
 Mach =   0.050     Re =     0.040 e 6     Ncrit =   5.000

  alpha     CL        CD       CDp       Cm    Top Xtr Bot Xtr   Cpmin    Chinge    XCp    
 ------- -------- --------- --------- -------- ------- ------- -------- --------- ---------
  -3.000  -0.3593   0.01910   0.00895   0.0101  1.0000  0.8364  -1.3203   0.0000   0.0000   0.0000   0.2754
  -2.900  -0.3422   0.01912   0.00886   0.0096  1.0000  0.8593  -1.2449   0.0000   0.0000   0.0000   0.2753
  -2.800  -0.3242   0.01913   0.00874   0.0088  1.0000  0.8806  -1.1743   0.0000   0.0000   0.0000   0.2743
  -2.700  -0.3043   0.01913   0.00860   0.0075  1.0000  0.9000  -1.1001   0.0000   0.0000   0.0000   0.2719
  -2.600  -0.2824   0.01911   0.00841   0.0057  1.0000  0.9174  -1.0224   0.0000   0.0000   0.0000   0.2674
  -2.500  -0.2598   0.01907   0.00822   0.0036  1.0000  0.9337  -0.9487   0.0000   0.0000   0.0000   0.2611
  -2.400  -0.2345   0.01899   0.00800   0.0009  1.0000  0.9481  -0.8742   0.0000   0.0000   0.0000   0.2509
  -2.300  -0.2099   0.01889   0.00775  -0.0019  1.0000  0.9619  -0.8029   0.0000   0.0000   0.0000   0.2382
  -2.200  -0.1853   0.01876   0.00749  -0.0047  1.0000  0.9750  -0.7392   0.0000   0.0000   0.0000   0.2216
  -2.100  -0.1609   0.01860   0.00718  -0.0076  1.0000  0.9876  -0.6776   0.0000   0.0000   0.0000   0.1993
  -2.000  -0.1358   0.01841   0.00688  -0.0107  1.0000  0.9990  -0.6207   0.0000   0.0000   0.0000   0.1673
  -1.900  -0.1276   0.01826   0.00668  -0.0107  1.0000  1.0000  -0.5928   0.0000   0.0000   0.0000   0.1627
  -1.800  -0.1209   0.01813   0.00650  -0.0103  1.0000  1.0000  -0.5691   0.0000   0.0000   0.0000   0.1613
  -1.700  -0.1141   0.01800   0.00633  -0.0099  1.0000  1.0000  -0.5454   0.0000   0.0000   0.0000   0.1599
  -1.600  -0.1073   0.01789   0.00618  -0.0094  1.0000  1.0000  -0.5230   0.0000   0.0000   0.0000   0.1586
  -1.500  -0.1005   0.01778   0.00604  -0.0090  1.0000  1.0000  -0.5012   0.0000   0.0000   0.0000   0.1572
  -1.400  -0.0937   0.01769   0.00592  -0.0085  1.0000  1.0000  -0.4804   0.0000   0.0000   0.0000   0.1559
  -1.300  -0.0869   0.01760   0.00580  -0.0080  1.0000  1.0000  -0.4605   0.0000   0.0000   0.0000   0.1546
  -1.200  -0.0801   0.01753   0.00569  -0.0075  1.0000  1.0000  -0.4416   0.0000   0.0000   0.0000   0.1533
  -1.100  -0.0732   0.01746   0.00558  -0.0069  1.0000  1.0000  -0.4233   0.0000   0.0000   0.0000   0.1521
  -1.000  -0.0664   0.01739   0.00550  -0.0064  1.0000  1.0000  -0.4063   0.0000   0.0000   0.0000   0.1508
  -0.900  -0.0597   0.01734   0.00542  -0.0058  1.0000  1.0000  -0.3901   0.0000   0.0000   0.0000   0.1496
  -0.800  -0.0529   0.01729   0.00535  -0.0052  1.0000  1.0000  -0.3747   0.0000   0.0000   0.0000   0.1484
  -0.700  -0.0462   0.01725   0.00529  -0.0046  1.0000  1.0000  -0.3602   0.0000   0.0000   0.0000   0.1472
  -0.600  -0.0395   0.01721   0.00524  -0.0040  1.0000  1.0000  -0.3466   0.0000   0.0000   0.0000   0.1461
  -0.500  -0.0328   0.01718   0.00520  -0.0033  1.0000  1.0000  -0.3337   0.0000   0.0000   0.0000   0.1449
  -0.400  -0.0262   0.01716   0.00516  -0.0027  1.0000  1.0000  -0.3216   0.0000   0.0000   0.0000   0.1437
  -0.300  -0.0196   0.01714   0.00514  -0.0020  1.0000  1.0000  -0.3102   0.0000   0.0000   0.0000   0.1424
  -0.200  -0.0130   0.01712   0.00512  -0.0014  1.0000  1.0000  -0.2995   0.0000   0.0000   0.0000   0.1415
  -0.100  -0.0065   0.01712   0.00511  -0.0007  1.0000  1.0000  -0.2893   0.0000   0.0000   0.0000   0.1409
   0.000   0.0000   0.01711   0.00510  -0.0000  1.0000  1.0000  -0.2797   0.0000   0.0000   0.0000   0.4238
   0.100   0.0065   0.01712   0.00511   0.0007  1.0000  1.0000  -0.2893   0.0000   0.0000   0.0000   0.1409
   0.200   0.0130   0.01712   0.00512   0.0014  1.0000  1.0000  -0.2995   0.0000   0.0000   0.0000   0.1415
   0.300   0.0196   0.01714   0.00514   0.0020  1.0000  1.0000  -0.3102   0.0000   0.0000   0.0000   0.1424
   0.400   0.0262   0.01716   0.00516   0.0027  1.0000  1.0000  -0.3216   0.0000   0.0000   0.0000   0.1437
   0.500   0.0328   0.01718   0.00520   0.0033  1.0000  1.0000  -0.3337   0.0000   0.0000   0.0000   0.1449
   0.600   0.0395   0.01721   0.00524   0.0040  1.0000  1.0000  -0.3466   0.0000   0.0000   0.0000   0.1461
   0.700   0.0462   0.01725   0.00529   0.0046  1.0000  1.0000  -0.3602   0.0000   0.0000   0.0000   0.1473
   0.800   0.0529   0.01729   0.00535   0.0052  1.0000  1.0000  -0.3747   0.0000   0.0000   0.0000   0.1484
   0.900   0.0597   0.01734   0.00542   0.0058  1.0000  1.0000  -0.3901   0.0000   0.0000   0.0000   0.1496
   1.000   0.0665   0.01739   0.00550   0.0064  1.0000  1.0000  -0.4063   0.0000   0.0000   0.0000   0.1509
   1.100   0.0733   0.01746   0.00558   0.0069  1.0000  1.0000  -0.4233   0.0000   0.0000   0.0000   0.1521
   1.200   0.0801   0.01753   0.00569   0.0075  1.0000  1.0000  -0.4416   0.0000   0.0000   0.0000   0.1534
   1.300   0.0869   0.01760   0.00580   0.0080  1.0000  1.0000  -0.4605   0.0000   0.0000   0.0000   0.1547
   1.400   0.0937   0.01769   0.00592   0.0085  1.0000  1.0000  -0.4804   0.0000   0.0000   0.0000   0.1560
   1.500   0.1005   0.01778   0.00604   0.0090  1.0000  1.0000  -0.5013   0.0000   0.0000   0.0000   0.1573
   1.600   0.1073   0.01789   0.00618   0.0094  1.0000  1.0000  -0.5230   0.0000   0.0000   0.0000   0.1586
   1.700   0.1141   0.01800   0.00633   0.0099  1.0000  1.0000  -0.5454   0.0000   0.0000   0.0000   0.1600
   1.800   0.1209   0.01812   0.00650   0.0103  1.0000  1.0000  -0.5691   0.0000   0.0000   0.0000   0.1613
   1.900   0.1276   0.01826   0.00668   0.0107  1.0000  1.0000  -0.5928   0.0000   0.0000   0.0000   0.1627
   2.000   0.1358   0.01841   0.00688   0.0108  0.9990  1.0000  -0.6207   0.0000   0.0000   0.0000   0.1673
   2.100   0.1609   0.01860   0.00718   0.0076  0.9876  1.0000  -0.6776   0.0000   0.0000   0.0000   0.1993
   2.200   0.1853   0.01876   0.00748   0.0047  0.9750  1.0000  -0.7392   0.0000   0.0000   0.0000   0.2216
   2.300   0.2099   0.01889   0.00775   0.0019  0.9620  1.0000  -0.8029   0.0000   0.0000   0.0000   0.2382
   2.400   0.2345   0.01899   0.00799  -0.0009  0.9481  1.0000  -0.8742   0.0000   0.0000   0.0000   0.2509
   2.500   0.2598   0.01907   0.00822  -0.0036  0.9338  1.0000  -0.9487   0.0000   0.0000   0.0000   0.2611
   2.600   0.2824   0.01911   0.00841  -0.0057  0.9174  1.0000  -1.0224   0.0000   0.0000   0.0000   0.2674
   2.800   0.3242   0.01913   0.00874  -0.0088  0.8806  1.0000  -1.1742   0.0000   0.0000   0.0000   0.2743
   2.900   0.3422   0.01912   0.00886  -0.0096  0.8593  1.0000  -1.2449   0.0000   0.0000   0.0000   0.2753
   3.000   0.3593   0.01910   0.00894  -0.0101  0.8365  1.0000  -1.3203   0.0000   0.0000   0.0000   0.2754
   3.100   0.3749   0.01908   0.00901  -0.0102  0.8115  1.0000  -1.3946   0.0000   0.0000   0.0000   0.2744
   3.200   0.3885   0.01908   0.00906  -0.0098  0.7845  1.0000  -1.4647   0.0000   0.0000   0.0000   0.2726
   3.300   0.4005   0.01910   0.00911  -0.0091  0.7554  1.0000  -1.5306   0.0000   0.0000   0.0000   0.2701
   3.400   0.4111   0.01914   0.00914  -0.0082  0.7245  1.0000  -1.5932   0.0000   0.0000   0.0000   0.2671
   3.500   0.4206   0.01921   0.00920  -0.0070  0.6917  1.0000  -1.6534   0.0000   0.0000   0.0000   0.2638
   3.600   0.4292   0.01932   0.00924  -0.0057  0.6569  1.0000  -1.7111   0.0000   0.0000   0.0000   0.2603
   3.700   0.4370   0.01947   0.00929  -0.0043  0.6198  1.0000  -1.7712   0.0000   0.0000   0.0000   0.2569
   3.800   0.4444   0.01966   0.00936  -0.0029  0.5808  1.0000  -1.8321   0.0000   0.0000   0.0000   0.2536
   3.900   0.4515   0.01991   0.00944  -0.0016  0.5399  1.0000  -1.8917   0.0000   0.0000   0.0000   0.2504
   4.000   0.4582   0.02020   0.00955  -0.0003  0.4967  1.0000  -1.9500   0.0000   0.0000   0.0000   0.2475
   4.100   0.4648   0.02054   0.00969   0.0009  0.4515  1.0000  -2.0071   0.0000   0.0000   0.0000   0.2449
   4.200   0.4712   0.02094   0.00986   0.0020  0.4049  1.0000  -2.0630   0.0000   0.0000   0.0000   0.2426
   4.300   0.4776   0.02141   0.01008   0.0029  0.3580  1.0000  -2.1175   0.0000   0.0000   0.0000   0.2405
   4.400   0.4841   0.02194   0.01036   0.0038  0.3127  1.0000  -2.1705   0.0000   0.0000   0.0000   0.2389
   4.500   0.4909   0.02254   0.01072   0.0044  0.2720  1.0000  -2.2221   0.0000   0.0000   0.0000   0.2375
   4.600   0.4979   0.02318   0.01112   0.0050  0.2377  1.0000  -2.2726   0.0000   0.0000   0.0000   0.2365
   4.700   0.5054   0.02383   0.01158   0.0055  0.2095  1.0000  -2.3221   0.0000   0.0000   0.0000   0.2356
   4.800   0.5132   0.02447   0.01208   0.0059  0.1876  1.0000  -2.3712   0.0000   0.0000   0.0000   0.2349
   4.900   0.5215   0.02512   0.01260   0.0062  0.1699  1.0000  -2.4211   0.0000   0.0000   0.0000   0.2344
   5.000   0.5303   0.02576   0.01317   0.0065  0.1556  1.0000  -2.4759   0.0000   0.0000   0.0000   0.2340
   5.100   0.5392   0.02640   0.01371   0.0068  0.1440  1.0000  -2.5371   0.0000   0.0000   0.0000   0.2336
   5.200   0.5485   0.02702   0.01432   0.0071  0.1342  1.0000  -2.5966   0.0000   0.0000   0.0000   0.2332
   5.300   0.5577   0.02764   0.01492   0.0074  0.1257  1.0000  -2.6577   0.0000   0.0000   0.0000   0.2329
   5.400   0.5674   0.02826   0.01558   0.0076  0.1182  1.0000  -2.7175   0.0000   0.0000   0.0000   0.2326
   5.500   0.5773   0.02889   0.01627   0.0079  0.1116  1.0000  -2.7758   0.0000   0.0000   0.0000   0.2323
   5.600   0.5870   0.02955   0.01699   0.0082  0.1060  1.0000  -2.8349   0.0000   0.0000   0.0000   0.2320
   5.700   0.5966   0.03020   0.01764   0.0085  0.1014  1.0000  -2.8972   0.0000   0.0000   0.0000   0.2317
   5.800   0.6068   0.03091   0.01848   0.0088  0.0966  1.0000  -2.9499   0.0000   0.0000   0.0000   0.2313
   5.900   0.6161   0.03158   0.01909   0.0091  0.0928  1.0000  -3.0152   0.0000   0.0000   0.0000   0.2310
   6.000   0.6264   0.03235   0.02006   0.0094  0.0889  1.0000  -3.0616   0.0000   0.0000   0.0000   0.2307
   6.100   0.6360   0.03310   0.02081   0.0097  0.0860  1.0000  -3.1216   0.0000   0.0000   0.0000   0.2304
   6.200   0.6459   0.03397   0.02184   0.0100  0.0831  1.0000  -3.1649   0.0000   0.0000   0.0000   0.2301
   6.300   0.6553   0.03476   0.02273   0.0103  0.0801  1.0000  -3.2170   0.0000   0.0000   0.0000   0.2298
   6.400   0.6644   0.03556   0.02354   0.0106  0.0776  1.0000  -3.2747   0.0000   0.0000   0.0000   0.2295
   6.500   0.6738   0.03658   0.02481   0.0110  0.0752  1.0000  -3.3050   0.0000   0.0000   0.0000   0.2292
   6.600   0.6829   0.03757   0.02597   0.0113  0.0735  1.0000  -3.3440   0.0000   0.0000   0.0000   0.2289
   6.700   0.6918   0.03849   0.02692   0.0116  0.0719  1.0000  -3.4005   0.0000   0.0000   0.0000   0.2286
   6.800   0.7002   0.03959   0.02819   0.0119  0.0703  1.0000  -3.4450   0.0000   0.0000   0.0000   0.2283
   6.900   0.7079   0.04082   0.02971   0.0123  0.0685  1.0000  -3.4728   0.0000   0.0000   0.0000   0.2279
   7.000   0.7156   0.04190   0.03095   0.0126  0.0667  1.0000  -3.5178   0.0000   0.0000   0.0000   0.2276
   7.100   0.7234   0.04280   0.03188   0.0128  0.0651  1.0000  -3.5841   0.0000   0.0000   0.0000   0.2274
   7.200   0.7305   0.04403   0.03325   0.0131  0.0639  1.0000  -3.6218   0.0000   0.0000   0.0000   0.2271
   7.300   0.7365   0.04558   0.03510   0.0135  0.0630  1.0000  -3.6276   0.0000   0.0000   0.0000   0.2267
   7.400   0.7422   0.04715   0.03693   0.0139  0.0625  1.0000  -3.6349   0.0000   0.0000   0.0000   0.2263
   7.500   0.7473   0.04875   0.03876   0.0142  0.0619  1.0000  -3.6410   0.0000   0.0000   0.0000   0.2260
   7.600   0.7520   0.05036   0.04058   0.0144  0.0614  1.0000  -3.6470   0.0000   0.0000   0.0000   0.2257
   7.700   0.7562   0.05194   0.04236   0.0147  0.0607  1.0000  -3.6553   0.0000   0.0000   0.0000   0.2255
   7.800   0.7604   0.05345   0.04402   0.0149  0.0600  1.0000  -3.6698   0.0000   0.0000   0.0000   0.2253
   7.900   0.7649   0.05479   0.04546   0.0151  0.0592  1.0000  -3.6992   0.0000   0.0000   0.0000   0.2250
   8.000   0.7708   0.05582   0.04650   0.0153  0.0582  1.0000  -3.7598   0.0000   0.0000   0.0000   0.2248
   8.100   0.7721   0.05769   0.04856   0.0154  0.0577  1.0000  -3.7427   0.0000   0.0000   0.0000   0.2247
   8.200   0.7720   0.05970   0.05080   0.0155  0.0574  1.0000  -3.7122   0.0000   0.0000   0.0000   0.2246
   8.300   0.7714   0.06172   0.05300   0.0154  0.0571  1.0000  -3.6824   0.0000   0.0000   0.0000   0.2247
   8.400   0.7703   0.06375   0.05522   0.0152  0.0568  1.0000  -3.6520   0.0000   0.0000   0.0000   0.2248
   8.500   0.7686   0.06579   0.05741   0.0150  0.0566  1.0000  -3.6198   0.0000   0.0000   0.0000   0.2250
   8.600   0.7663   0.06786   0.05960   0.0146  0.0565  1.0000  -3.5860   0.0000   0.0000   0.0000   0.2254
   8.700   0.7634   0.06995   0.06179   0.0142  0.0564  1.0000  -3.5502   0.0000   0.0000   0.0000   0.2258
   8.800   0.7600   0.07205   0.06397   0.0137  0.0564  1.0000  -3.5123   0.0000   0.0000   0.0000   0.2264
   8.900   0.7561   0.07419   0.06617   0.0130  0.0565  1.0000  -3.4724   0.0000   0.0000   0.0000   0.2272
   9.000   0.7519   0.07635   0.06839   0.0122  0.0566  1.0000  -3.4308   0.0000   0.0000   0.0000   0.2280
   9.100   0.7473   0.07853   0.07061   0.0113  0.0567  1.0000  -3.3878   0.0000   0.0000   0.0000   0.2291
   9.200   0.7422   0.08063   0.07274   0.0105  0.0568  1.0000  -3.3448   0.0000   0.0000   0.0000   0.2301
   9.300   0.7369   0.08277   0.07490   0.0095  0.0570  1.0000  -3.3013   0.0000   0.0000   0.0000   0.2312
   9.400   0.7320   0.08503   0.07716   0.0082  0.0572  1.0000  -3.2568   0.0000   0.0000   0.0000   0.2329
   9.500   0.7276   0.08740   0.07953   0.0066  0.0573  1.0000  -3.2117   0.0000   0.0000   0.0000   0.2349
   9.600   0.7239   0.08986   0.08199   0.0048  0.0575  1.0000  -3.1667   0.0000   0.0000   0.0000   0.2372
   9.700   0.7209   0.09239   0.08452   0.0030  0.0577  1.0000  -3.1224   0.0000   0.0000   0.0000   0.2396
   9.800   0.7186   0.09497   0.08708   0.0012  0.0579  1.0000  -3.0795   0.0000   0.0000   0.0000   0.2420
   9.900   0.7170   0.09746   0.08956  -0.0004  0.0580  1.0000  -3.0417   0.0000   0.0000   0.0000   0.2442
  10.100   0.7030   0.10543   0.09747  -0.0072  0.0599  1.0000  -2.7837   0.0000   0.0000   0.0000   0.2539
  10.200   0.7005   0.10799   0.10000  -0.0088  0.0602  1.0000  -2.7319   0.0000   0.0000   0.0000   0.2561
  10.300   0.6985   0.11041   0.10240  -0.0102  0.0606  1.0000  -2.6862   0.0000   0.0000   0.0000   0.2581
  10.400   0.6969   0.11272   0.10469  -0.0114  0.0610  1.0000  -2.6457   0.0000   0.0000   0.0000   0.2599
  10.500   0.6958   0.11495   0.10689  -0.0126  0.0614  1.0000  -2.6098   0.0000   0.0000   0.0000   0.2615
  10.600   0.6949   0.11711   0.10903  -0.0137  0.0617  1.0000  -2.5774   0.0000   0.0000   0.0000   0.2630
  10.700   0.6944   0.11921   0.11111  -0.0147  0.0621  1.0000  -2.5486   0.0000   0.0000   0.0000   0.2644
  10.800   0.6942   0.12125   0.11313  -0.0156  0.0625  1.0000  -2.5232   0.0000   0.0000   0.0000   0.2656
  10.900   0.6943   0.12323   0.11510  -0.0164  0.0629  1.0000  -2.5012   0.0000   0.0000   0.0000   0.2668
  11.000   0.6948   0.12516   0.11702  -0.0171  0.0633  1.0000  -2.4829   0.0000   0.0000   0.0000   0.2678
  11.100   0.6957   0.12703   0.11888  -0.0178  0.0636  1.0000  -2.4690   0.0000   0.0000   0.0000   0.2686
  11.200   0.6971   0.12883   0.12068  -0.0183  0.0640  1.0000  -2.4614   0.0000   0.0000   0.0000   0.2692
  11.300   0.6994   0.13053   0.12238  -0.0186  0.0644  1.0000  -2.4630   0.0000   0.0000   0.0000   0.2694
  11.400   0.6931   0.13367   0.12548  -0.0214  0.0663  1.0000  -2.3418   0.0000   0.0000   0.0000   0.2737
  11.500   0.6923   0.13586   0.12765  -0.0225  0.0673  1.0000  -2.2998   0.0000   0.0000   0.0000   0.2754
  11.600   0.6926   0.13786   0.12964  -0.0234  0.0682  1.0000  -2.2723   0.0000   0.0000   0.0000   0.2766
  11.700   0.6935   0.13977   0.13153  -0.0242  0.0690  1.0000  -2.2533   0.0000   0.0000   0.0000   0.2776
  11.800   0.6951   0.14160   0.13336  -0.0247  0.0697  1.0000  -2.2411   0.0000   0.0000   0.0000   0.2783
  11.900   0.6973   0.14337   0.13513  -0.0252  0.0703  1.0000  -2.2356   0.0000   0.0000   0.0000   0.2787
  12.000   0.7003   0.14509   0.13685  -0.0254  0.0708  1.0000  -2.2384   0.0000   0.0000   0.0000   0.2788
  12.200   0.6969   0.14971   0.14144  -0.0287  0.0759  1.0000  -2.1130   0.0000   0.0000   0.0000   0.2835
  12.300   0.6997   0.15152   0.14325  -0.0290  0.0769  1.0000  -2.1087   0.0000   0.0000   0.0000   0.2839
  12.400   0.7048   0.15328   0.14502  -0.0289  0.0779  1.0000  -2.1267   0.0000   0.0000   0.0000   0.2833
  12.600   0.6987   0.16174   0.15352  -0.0360  0.1312  1.0000  -1.7968   0.0000   0.0000   0.0000   0.2939
  12.700   0.7002   0.16326   0.15503  -0.0366  0.1301  1.0000  -1.7906   0.0000   0.0000   0.0000   0.2946
  12.800   0.7026   0.16481   0.15658  -0.0371  0.1289  1.0000  -1.7962   0.0000   0.0000   0.0000   0.2950
  12.900   0.7078   0.16662   0.15841  -0.0370  0.1272  1.0000  -1.8204   0.0000   0.0000   0.0000   0.2945
  13.100   0.7154   0.17039   0.16217  -0.0375  0.1258  1.0000  -1.8439   0.0000   0.0000   0.0000   0.2945
  13.200   0.7150   0.17174   0.16351  -0.0385  0.1255  1.0000  -1.8277   0.0000   0.0000   0.0000   0.2958
  13.300   0.7144   0.17300   0.16474  -0.0396  0.1251  1.0000  -1.8103   0.0000   0.0000   0.0000   0.2972
  13.400   0.7138   0.17418   0.16591  -0.0406  0.1242  1.0000  -1.7933   0.0000   0.0000   0.0000   0.2986
  13.500   0.7143   0.17546   0.16718  -0.0415  0.1230  1.0000  -1.7833   0.0000   0.0000   0.0000   0.2997
  13.600   0.7158   0.17688   0.16859  -0.0422  0.1221  1.0000  -1.7794   0.0000   0.0000   0.0000   0.3004
  13.700   0.7178   0.17834   0.17005  -0.0428  0.1212  1.0000  -1.7788   0.0000   0.0000   0.0000   0.3011
  13.800   0.7204   0.17986   0.17159  -0.0433  0.1203  1.0000  -1.7813   0.0000   0.0000   0.0000   0.3015
  13.900   0.7236   0.18146   0.17319  -0.0437  0.1194  1.0000  -1.7883   0.0000   0.0000   0.0000   0.3017
  14.000   0.7278   0.18328   0.17502  -0.0440  0.1185  1.0000  -1.8020   0.0000   0.0000   0.0000   0.3017
  14.100   0.7338   0.18553   0.17729  -0.0440  0.1177  1.0000  -1.8260   0.0000   0.0000   0.0000   0.3011
  14.200   0.7372   0.18738   0.17912  -0.0444  0.1173  1.0000  -1.8307   0.0000   0.0000   0.0000   0.3013
  14.300   0.7370   0.18844   0.18016  -0.0455  0.1170  1.0000  -1.8126   0.0000   0.0000   0.0000   0.3027
  14.400   0.7367   0.18943   0.18114  -0.0466  0.1165  1.0000  -1.7938   0.0000   0.0000   0.0000   0.3041
  14.500   0.7367   0.19042   0.18212  -0.0477  0.1156  1.0000  -1.7769   0.0000   0.0000   0.0000   0.3055
  14.600   0.7378   0.19158   0.18327  -0.0486  0.1144  1.0000  -1.7673   0.0000   0.0000   0.0000   0.3065
  14.700   0.7399   0.19292   0.18461  -0.0493  0.1131  1.0000  -1.7648   0.0000   0.0000   0.0000   0.3072
  14.800   0.7428   0.19437   0.18605  -0.0499  0.1119  1.0000  -1.7680   0.0000   0.0000   0.0000   0.3076
  14.900   0.7467   0.19605   0.18774  -0.0502  0.1106  1.0000  -1.7796   0.0000   0.0000   0.0000   0.3076
  15.000   0.7535   0.19848   0.19019  -0.0500  0.1093  1.0000  -1.8113   0.0000   0.0000   0.0000   0.3066


