xflr5 v6.59

 Calculated polar for: NACA 3412

 1 1 Reynolds number fixed          Mach number fixed         

 xtrf =   1.000 (top)        1.000 (bottom)
 Mach =   0.050     Re =     0.200 e 6     Ncrit =   9.000

  alpha     CL        CD       CDp       Cm    Top Xtr Bot Xtr   Cpmin    Chinge    XCp    
 ------- -------- --------- --------- -------- ------- ------- -------- --------- ---------
  -5.000  -0.2830   0.01829   0.01038  -0.0684  0.9595  0.0863  -2.4597   0.0000   0.0000   0.0000  -0.0019
  -4.900  -0.2674   0.01801   0.01017  -0.0694  0.9578  0.0890  -2.3911   0.0000   0.0000   0.0000  -0.0199
  -4.800  -0.2506   0.01778   0.00985  -0.0704  0.9565  0.0927  -2.3263   0.0000   0.0000   0.0000  -0.0420
  -4.700  -0.2341   0.01746   0.00962  -0.0717  0.9554  0.0961  -2.2555   0.0000   0.0000   0.0000  -0.0674
  -4.600  -0.2222   0.01729   0.00942  -0.0718  0.9520  0.0997  -2.2002   0.0000   0.0000   0.0000  -0.0846
  -4.500  -0.2079   0.01702   0.00920  -0.0725  0.9498  0.1034  -2.1375   0.0000   0.0000   0.0000  -0.1106
  -4.400  -0.1919   0.01681   0.00897  -0.0734  0.9481  0.1081  -2.0722   0.0000   0.0000   0.0000  -0.1454
  -4.300  -0.1754   0.01653   0.00875  -0.0746  0.9469  0.1127  -2.0041   0.0000   0.0000   0.0000  -0.1886
  -4.200  -0.1581   0.01629   0.00850  -0.0758  0.9459  0.1185  -1.9363   0.0000   0.0000   0.0000  -0.2438
  -4.100  -0.1464   0.01611   0.00837  -0.0760  0.9425  0.1234  -1.8827   0.0000   0.0000   0.0000  -0.2837
  -4.000  -0.1323   0.01589   0.00817  -0.0766  0.9400  0.1291  -1.8280   0.0000   0.0000   0.0000  -0.3450
  -3.900  -0.1161   0.01567   0.00796  -0.0776  0.9384  0.1362  -1.7692   0.0000   0.0000   0.0000  -0.4359
  -3.800  -0.0992   0.01546   0.00776  -0.0787  0.9372  0.1442  -1.7086   0.0000   0.0000   0.0000  -0.5639
  -3.700  -0.0824   0.01521   0.00758  -0.0799  0.9361  0.1525  -1.6480   0.0000   0.0000   0.0000  -0.7419
  -3.600  -0.0699   0.01502   0.00744  -0.0802  0.9331  0.1601  -1.5968   0.0000   0.0000   0.0000  -0.9239
  -3.500  -0.0575   0.01483   0.00730  -0.0804  0.9298  0.1685  -1.5465   0.0000   0.0000   0.0000  -1.1786
  -3.400  -0.0426   0.01462   0.00713  -0.0811  0.9279  0.1786  -1.4909   0.0000   0.0000   0.0000  -1.6940
  -3.300  -0.0271   0.01440   0.00695  -0.0820  0.9263  0.1899  -1.4343   0.0000   0.0000   0.0000  -2.8386
  -3.200  -0.0112   0.01418   0.00678  -0.0829  0.9250  0.2024  -1.3823   0.0000   0.0000   0.0000  -7.2764
  -3.100  -0.0016   0.01405   0.00670  -0.0825  0.9204  0.2129  -1.3426   0.0000   0.0000   0.0000  -50.8549
  -3.000   0.0118   0.01387   0.00655  -0.0829  0.9177  0.2261  -1.2958   0.0000   0.0000   0.0000   7.4044
  -2.900   0.0262   0.01365   0.00641  -0.0835  0.9157  0.2401  -1.2470   0.0000   0.0000   0.0000   3.4872
  -2.800   0.0411   0.01343   0.00626  -0.0842  0.9141  0.2555  -1.1976   0.0000   0.0000   0.0000   2.3298
  -2.700   0.0507   0.01330   0.00619  -0.0838  0.9094  0.2692  -1.1588   0.0000   0.0000   0.0000   1.9290
  -2.600   0.0633   0.01312   0.00606  -0.0840  0.9063  0.2857  -1.1146   0.0000   0.0000   0.0000   1.5972
  -2.500   0.0768   0.01290   0.00593  -0.0844  0.9040  0.3033  -1.0722   0.0000   0.0000   0.0000   1.3636
  -2.400   0.0909   0.01269   0.00577  -0.0849  0.9022  0.3233  -1.0295   0.0000   0.0000   0.0000   1.1956
  -2.300   0.0993   0.01256   0.00572  -0.0843  0.8966  0.3404  -0.9969   0.0000   0.0000   0.0000   1.1093
  -2.200   0.1116   0.01235   0.00560  -0.0844  0.8935  0.3626  -0.9579   0.0000   0.0000   0.0000   1.0154
  -2.100   0.1245   0.01211   0.00546  -0.0847  0.8912  0.3885  -0.9180   0.0000   0.0000   0.0000   0.9374
  -1.900   0.1443   0.01169   0.00532  -0.0840  0.8824  0.4508  -0.8520   0.0000   0.0000   0.0000   0.8377
  -1.800   0.1557   0.01141   0.00522  -0.0839  0.8796  0.4967  -0.8182   0.0000   0.0000   0.0000   0.7935
  -1.700   0.1648   0.01119   0.00519  -0.0833  0.8751  0.5452  -0.7882   0.0000   0.0000   0.0000   0.7599
  -1.600   0.1739   0.01097   0.00516  -0.0827  0.8706  0.5969  -0.7581   0.0000   0.0000   0.0000   0.7292
  -1.500   0.1840   0.01072   0.00509  -0.0822  0.8674  0.6495  -0.7266   0.0000   0.0000   0.0000   0.6995
  -1.400   0.1925   0.01054   0.00508  -0.0813  0.8627  0.6976  -0.6997   0.0000   0.0000   0.0000   0.6748
  -1.300   0.2010   0.01038   0.00507  -0.0803  0.8580  0.7436  -0.6732   0.0000   0.0000   0.0000   0.6518
  -1.200   0.2108   0.01021   0.00502  -0.0795  0.8547  0.7882  -0.6450   0.0000   0.0000   0.0000   0.6288
  -1.100   0.2198   0.01012   0.00503  -0.0785  0.8498  0.8287  -0.6181   0.0000   0.0000   0.0000   0.6086
  -1.000   0.2309   0.01006   0.00503  -0.0779  0.8451  0.8666  -0.5892   0.0000   0.0000   0.0000   0.5886
  -0.900   0.2462   0.00999   0.00497  -0.0782  0.8418  0.9002  -0.5803   0.0000   0.0000   0.0000   0.5684
  -0.800   0.2631   0.00997   0.00495  -0.0790  0.8372  0.9272  -0.5914   0.0000   0.0000   0.0000   0.5506
  -0.700   0.2820   0.00996   0.00490  -0.0802  0.8324  0.9483  -0.6037   0.0000   0.0000   0.0000   0.5348
  -0.600   0.3026   0.00992   0.00481  -0.0819  0.8288  0.9649  -0.6169   0.0000   0.0000   0.0000   0.5206
  -0.500   0.3237   0.00991   0.00476  -0.0838  0.8238  0.9783  -0.6305   0.0000   0.0000   0.0000   0.5085
  -0.400   0.3469   0.00988   0.00468  -0.0862  0.8187  0.9886  -0.6454   0.0000   0.0000   0.0000   0.4979
  -0.300   0.3717   0.00983   0.00456  -0.0889  0.8148  0.9969  -0.6613   0.0000   0.0000   0.0000   0.4884
  -0.200   0.3869   0.00981   0.00451  -0.0897  0.8084  1.0000  -0.6721   0.0000   0.0000   0.0000   0.4811
  -0.100   0.3967   0.00980   0.00443  -0.0894  0.8028  1.0000  -0.6803   0.0000   0.0000   0.0000   0.4744
   0.000   0.4061   0.00979   0.00438  -0.0890  0.7967  1.0000  -0.6883   0.0000   0.0000   0.0000   0.4680
   0.100   0.4156   0.00979   0.00433  -0.0886  0.7906  1.0000  -0.6963   0.0000   0.0000   0.0000   0.4620
   0.200   0.4256   0.00979   0.00427  -0.0883  0.7853  1.0000  -0.7050   0.0000   0.0000   0.0000   0.4561
   0.300   0.4348   0.00981   0.00425  -0.0879  0.7784  1.0000  -0.7131   0.0000   0.0000   0.0000   0.4506
   0.400   0.4451   0.00981   0.00418  -0.0876  0.7734  1.0000  -0.7220   0.0000   0.0000   0.0000   0.4452
   0.500   0.4542   0.00984   0.00418  -0.0872  0.7664  1.0000  -0.7302   0.0000   0.0000   0.0000   0.4402
   0.600   0.4642   0.00985   0.00413  -0.0869  0.7609  1.0000  -0.7393   0.0000   0.0000   0.0000   0.4353
   0.700   0.4738   0.00988   0.00412  -0.0865  0.7546  1.0000  -0.7480   0.0000   0.0000   0.0000   0.4306
   0.800   0.4835   0.00990   0.00410  -0.0862  0.7485  1.0000  -0.7571   0.0000   0.0000   0.0000   0.4261
   0.900   0.4936   0.00994   0.00407  -0.0859  0.7429  1.0000  -0.7665   0.0000   0.0000   0.0000   0.4217
   1.000   0.5030   0.00997   0.00408  -0.0855  0.7363  1.0000  -0.7755   0.0000   0.0000   0.0000   0.4176
   1.100   0.5133   0.01001   0.00404  -0.0852  0.7313  1.0000  -0.7854   0.0000   0.0000   0.0000   0.4135
   1.200   0.5226   0.01005   0.00407  -0.0848  0.7245  1.0000  -0.7946   0.0000   0.0000   0.0000   0.4097
   1.300   0.5326   0.01009   0.00406  -0.0845  0.7189  1.0000  -0.8044   0.0000   0.0000   0.0000   0.4060
   1.400   0.5425   0.01014   0.00406  -0.0842  0.7131  1.0000  -0.8144   0.0000   0.0000   0.0000   0.4024
   1.500   0.5521   0.01019   0.00408  -0.0839  0.7070  1.0000  -0.8243   0.0000   0.0000   0.0000   0.3990
   1.600   0.5626   0.01025   0.00406  -0.0836  0.7022  1.0000  -0.8350   0.0000   0.0000   0.0000   0.3956
   1.700   0.5719   0.01030   0.00410  -0.0832  0.6955  1.0000  -0.8451   0.0000   0.0000   0.0000   0.3924
   1.800   0.5820   0.01035   0.00411  -0.0829  0.6902  1.0000  -0.8558   0.0000   0.0000   0.0000   0.3893
   1.900   0.5919   0.01042   0.00414  -0.0827  0.6847  1.0000  -0.8667   0.0000   0.0000   0.0000   0.3863
   2.000   0.6017   0.01047   0.00417  -0.0823  0.6787  1.0000  -0.8776   0.0000   0.0000   0.0000   0.3834
   2.100   0.6121   0.01054   0.00417  -0.0821  0.6740  1.0000  -0.8894   0.0000   0.0000   0.0000   0.3806
   2.200   0.6217   0.01060   0.00423  -0.0818  0.6680  1.0000  -0.9006   0.0000   0.0000   0.0000   0.3779
   2.300   0.6317   0.01067   0.00426  -0.0815  0.6626  1.0000  -0.9126   0.0000   0.0000   0.0000   0.3753
   2.400   0.6422   0.01074   0.00427  -0.0813  0.6581  1.0000  -0.9251   0.0000   0.0000   0.0000   0.3728
   2.500   0.6518   0.01081   0.00434  -0.0810  0.6521  1.0000  -0.9374   0.0000   0.0000   0.0000   0.3703
   2.600   0.6620   0.01088   0.00437  -0.0807  0.6471  1.0000  -0.9504   0.0000   0.0000   0.0000   0.3679
   2.700   0.6723   0.01096   0.00440  -0.0805  0.6423  1.0000  -0.9639   0.0000   0.0000   0.0000   0.3656
   2.800   0.6821   0.01102   0.00447  -0.0802  0.6367  1.0000  -0.9775   0.0000   0.0000   0.0000   0.3634
   2.900   0.6924   0.01110   0.00451  -0.0800  0.6320  1.0000  -0.9921   0.0000   0.0000   0.0000   0.3612
   3.000   0.7026   0.01118   0.00456  -0.0797  0.6272  1.0000  -1.0072   0.0000   0.0000   0.0000   0.3591
   3.100   0.7125   0.01125   0.00463  -0.0795  0.6218  1.0000  -1.0227   0.0000   0.0000   0.0000   0.3570
   3.200   0.7228   0.01133   0.00467  -0.0792  0.6173  1.0000  -1.0397   0.0000   0.0000   0.0000   0.3550
   3.300   0.7331   0.01142   0.00473  -0.0790  0.6126  1.0000  -1.0576   0.0000   0.0000   0.0000   0.3531
   3.400   0.7430   0.01149   0.00480  -0.0788  0.6073  1.0000  -1.0765   0.0000   0.0000   0.0000   0.3512
   3.500   0.7533   0.01157   0.00485  -0.0785  0.6028  1.0000  -1.0974   0.0000   0.0000   0.0000   0.3494
   3.600   0.7636   0.01166   0.00491  -0.0783  0.5982  1.0000  -1.1196   0.0000   0.0000   0.0000   0.3476
   3.700   0.7735   0.01174   0.00499  -0.0781  0.5930  1.0000  -1.1428   0.0000   0.0000   0.0000   0.3459
   3.800   0.7838   0.01182   0.00505  -0.0779  0.5885  1.0000  -1.1680   0.0000   0.0000   0.0000   0.3442
   3.900   0.7942   0.01192   0.00512  -0.0777  0.5841  1.0000  -1.1945   0.0000   0.0000   0.0000   0.3425
   4.000   0.8040   0.01199   0.00521  -0.0774  0.5788  1.0000  -1.2213   0.0000   0.0000   0.0000   0.3409
   4.100   0.8143   0.01208   0.00527  -0.0772  0.5742  1.0000  -1.2505   0.0000   0.0000   0.0000   0.3393
   4.200   0.8247   0.01218   0.00533  -0.0770  0.5698  1.0000  -1.2802   0.0000   0.0000   0.0000   0.3378
   4.300   0.8345   0.01225   0.00543  -0.0767  0.5645  1.0000  -1.3110   0.0000   0.0000   0.0000   0.3362
   4.400   0.8446   0.01234   0.00549  -0.0765  0.5598  1.0000  -1.3429   0.0000   0.0000   0.0000   0.3348
   4.500   0.8550   0.01244   0.00556  -0.0763  0.5553  1.0000  -1.3765   0.0000   0.0000   0.0000   0.3333
   4.600   0.8647   0.01251   0.00566  -0.0760  0.5499  1.0000  -1.4101   0.0000   0.0000   0.0000   0.3319
   4.700   0.8748   0.01260   0.00573  -0.0757  0.5451  1.0000  -1.4448   0.0000   0.0000   0.0000   0.3305
   4.800   0.8849   0.01270   0.00581  -0.0755  0.5403  1.0000  -1.4812   0.0000   0.0000   0.0000   0.3291
   4.900   0.8946   0.01277   0.00591  -0.0752  0.5347  1.0000  -1.5179   0.0000   0.0000   0.0000   0.3277
   5.000   0.9047   0.01287   0.00597  -0.0749  0.5298  1.0000  -1.5559   0.0000   0.0000   0.0000   0.3264
   5.100   0.9145   0.01296   0.00606  -0.0746  0.5245  1.0000  -1.5935   0.0000   0.0000   0.0000   0.3251
   5.200   0.9242   0.01304   0.00615  -0.0743  0.5188  1.0000  -1.6334   0.0000   0.0000   0.0000   0.3238
   5.300   0.9344   0.01315   0.00620  -0.0741  0.5139  1.0000  -1.6753   0.0000   0.0000   0.0000   0.3226
   5.400   0.9437   0.01322   0.00631  -0.0737  0.5077  1.0000  -1.7155   0.0000   0.0000   0.0000   0.3213
   5.500   0.9534   0.01330   0.00638  -0.0734  0.5021  1.0000  -1.7570   0.0000   0.0000   0.0000   0.3200
   5.600   0.9631   0.01340   0.00648  -0.0731  0.4966  1.0000  -1.7988   0.0000   0.0000   0.0000   0.3188
   5.700   0.9725   0.01348   0.00657  -0.0727  0.4904  1.0000  -1.8430   0.0000   0.0000   0.0000   0.3176
   5.800   0.9824   0.01359   0.00663  -0.0725  0.4852  1.0000  -1.8892   0.0000   0.0000   0.0000   0.3165
   5.900   0.9915   0.01366   0.00675  -0.0721  0.4785  1.0000  -1.9337   0.0000   0.0000   0.0000   0.3153
   6.000   1.0010   0.01376   0.00682  -0.0717  0.4727  1.0000  -1.9796   0.0000   0.0000   0.0000   0.3141
   6.100   1.0104   0.01385   0.00693  -0.0714  0.4665  1.0000  -2.0253   0.0000   0.0000   0.0000   0.3130
   6.200   1.0197   0.01394   0.00702  -0.0710  0.4601  1.0000  -2.0713   0.0000   0.0000   0.0000   0.3118
   6.300   1.0290   0.01405   0.00711  -0.0706  0.4541  1.0000  -2.1192   0.0000   0.0000   0.0000   0.3107
   6.400   1.0381   0.01413   0.00722  -0.0702  0.4473  1.0000  -2.1690   0.0000   0.0000   0.0000   0.3096
   6.500   1.0473   0.01425   0.00732  -0.0698  0.4412  1.0000  -2.2195   0.0000   0.0000   0.0000   0.3086
   6.600   1.0563   0.01433   0.00743  -0.0694  0.4339  1.0000  -2.2697   0.0000   0.0000   0.0000   0.3075
   6.700   1.0653   0.01445   0.00752  -0.0690  0.4275  1.0000  -2.3204   0.0000   0.0000   0.0000   0.3064
   6.800   1.0742   0.01454   0.00764  -0.0686  0.4198  1.0000  -2.3711   0.0000   0.0000   0.0000   0.3053
   6.900   1.0830   0.01466   0.00774  -0.0681  0.4129  1.0000  -2.4219   0.0000   0.0000   0.0000   0.3043
   7.000   1.0917   0.01476   0.00786  -0.0677  0.4049  1.0000  -2.4728   0.0000   0.0000   0.0000   0.3032
   7.100   1.1003   0.01488   0.00798  -0.0672  0.3970  1.0000  -2.5238   0.0000   0.0000   0.0000   0.3022
   7.200   1.1087   0.01500   0.00808  -0.0667  0.3890  1.0000  -2.5764   0.0000   0.0000   0.0000   0.3012
   7.300   1.1172   0.01512   0.00821  -0.0662  0.3800  1.0000  -2.6318   0.0000   0.0000   0.0000   0.3001
   7.400   1.1254   0.01525   0.00834  -0.0657  0.3713  1.0000  -2.6867   0.0000   0.0000   0.0000   0.2991
   7.500   1.1332   0.01541   0.00848  -0.0651  0.3620  1.0000  -2.7412   0.0000   0.0000   0.0000   0.2981
   7.600   1.1412   0.01555   0.00862  -0.0646  0.3517  1.0000  -2.7962   0.0000   0.0000   0.0000   0.2970
   7.700   1.1490   0.01572   0.00877  -0.0640  0.3413  1.0000  -2.8507   0.0000   0.0000   0.0000   0.2960
   7.800   1.1564   0.01591   0.00893  -0.0633  0.3305  1.0000  -2.9046   0.0000   0.0000   0.0000   0.2950
   7.900   1.1635   0.01611   0.00910  -0.0627  0.3190  1.0000  -2.9579   0.0000   0.0000   0.0000   0.2939
   8.000   1.1703   0.01634   0.00928  -0.0620  0.3070  1.0000  -3.0107   0.0000   0.0000   0.0000   0.2929
   8.100   1.1769   0.01658   0.00948  -0.0613  0.2943  1.0000  -3.0629   0.0000   0.0000   0.0000   0.2918
   8.200   1.1833   0.01684   0.00970  -0.0605  0.2811  1.0000  -3.1145   0.0000   0.0000   0.0000   0.2908
   8.300   1.1892   0.01713   0.00993  -0.0597  0.2672  1.0000  -3.1650   0.0000   0.0000   0.0000   0.2897
   8.400   1.1947   0.01745   0.01019  -0.0588  0.2528  1.0000  -3.2142   0.0000   0.0000   0.0000   0.2886
   8.500   1.1996   0.01781   0.01047  -0.0579  0.2384  1.0000  -3.2618   0.0000   0.0000   0.0000   0.2875
   8.600   1.2046   0.01817   0.01077  -0.0570  0.2232  1.0000  -3.3136   0.0000   0.0000   0.0000   0.2864
   8.700   1.2090   0.01857   0.01109  -0.0560  0.2082  1.0000  -3.3634   0.0000   0.0000   0.0000   0.2853
   8.800   1.2127   0.01901   0.01144  -0.0549  0.1940  1.0000  -3.4109   0.0000   0.0000   0.0000   0.2841
   8.900   1.2166   0.01945   0.01180  -0.0539  0.1796  1.0000  -3.4590   0.0000   0.0000   0.0000   0.2830
   9.000   1.2199   0.01991   0.01218  -0.0528  0.1665  1.0000  -3.5049   0.0000   0.0000   0.0000   0.2818
   9.100   1.2227   0.02040   0.01259  -0.0516  0.1550  1.0000  -3.5488   0.0000   0.0000   0.0000   0.2806
   9.200   1.2248   0.02087   0.01299  -0.0502  0.1450  1.0000  -3.5905   0.0000   0.0000   0.0000   0.2793
   9.300   1.2270   0.02135   0.01340  -0.0489  0.1361  1.0000  -3.6323   0.0000   0.0000   0.0000   0.2780
   9.400   1.2293   0.02183   0.01384  -0.0477  0.1280  1.0000  -3.6745   0.0000   0.0000   0.0000   0.2768
   9.500   1.2318   0.02232   0.01429  -0.0465  0.1210  1.0000  -3.7166   0.0000   0.0000   0.0000   0.2756
   9.600   1.2339   0.02283   0.01476  -0.0453  0.1150  1.0000  -3.7577   0.0000   0.0000   0.0000   0.2744
   9.700   1.2360   0.02335   0.01524  -0.0441  0.1098  1.0000  -3.7988   0.0000   0.0000   0.0000   0.2732
   9.800   1.2390   0.02384   0.01573  -0.0430  0.1046  1.0000  -3.8421   0.0000   0.0000   0.0000   0.2721
   9.900   1.2401   0.02442   0.01626  -0.0418  0.1009  1.0000  -3.8805   0.0000   0.0000   0.0000   0.2710
  10.000   1.2439   0.02488   0.01674  -0.0409  0.0964  1.0000  -3.9259   0.0000   0.0000   0.0000   0.2700
  10.100   1.2452   0.02548   0.01730  -0.0397  0.0934  1.0000  -3.9647   0.0000   0.0000   0.0000   0.2689
  10.200   1.2486   0.02597   0.01781  -0.0388  0.0898  1.0000  -4.0085   0.0000   0.0000   0.0000   0.2679
  10.300   1.2509   0.02653   0.01836  -0.0378  0.0869  1.0000  -4.0506   0.0000   0.0000   0.0000   0.2669
  10.400   1.2524   0.02715   0.01896  -0.0368  0.0846  1.0000  -4.0887   0.0000   0.0000   0.0000   0.2659
  10.500   1.2560   0.02766   0.01950  -0.0359  0.0817  1.0000  -4.1331   0.0000   0.0000   0.0000   0.2650
  10.600   1.2583   0.02825   0.02007  -0.0351  0.0795  1.0000  -4.1751   0.0000   0.0000   0.0000   0.2641
  10.700   1.2595   0.02893   0.02073  -0.0341  0.0777  1.0000  -4.2124   0.0000   0.0000   0.0000   0.2631
  10.800   1.2633   0.02944   0.02129  -0.0333  0.0752  1.0000  -4.2571   0.0000   0.0000   0.0000   0.2623
  10.900   1.2661   0.03002   0.02188  -0.0326  0.0733  1.0000  -4.3033   0.0000   0.0000   0.0000   0.2614
  11.000   1.2676   0.03071   0.02253  -0.0317  0.0717  1.0000  -4.3474   0.0000   0.0000   0.0000   0.2606
  11.100   1.2702   0.03135   0.02320  -0.0310  0.0700  1.0000  -4.3923   0.0000   0.0000   0.0000   0.2598
  11.200   1.2736   0.03192   0.02381  -0.0303  0.0682  1.0000  -4.4410   0.0000   0.0000   0.0000   0.2590
  11.300   1.2764   0.03254   0.02445  -0.0296  0.0667  1.0000  -4.4888   0.0000   0.0000   0.0000   0.2582
  11.400   1.2786   0.03322   0.02511  -0.0289  0.0654  1.0000  -4.5350   0.0000   0.0000   0.0000   0.2575
  11.500   1.2802   0.03400   0.02584  -0.0281  0.0643  1.0000  -4.5776   0.0000   0.0000   0.0000   0.2567
  11.600   1.2840   0.03458   0.02651  -0.0275  0.0629  1.0000  -4.6255   0.0000   0.0000   0.0000   0.2560
  11.700   1.2873   0.03521   0.02718  -0.0269  0.0616  1.0000  -4.6734   0.0000   0.0000   0.0000   0.2553
  11.800   1.2903   0.03585   0.02784  -0.0263  0.0603  1.0000  -4.7221   0.0000   0.0000   0.0000   0.2546
  11.900   1.2931   0.03653   0.02849  -0.0257  0.0593  1.0000  -4.7714   0.0000   0.0000   0.0000   0.2539
  12.000   1.2957   0.03727   0.02917  -0.0251  0.0583  1.0000  -4.8202   0.0000   0.0000   0.0000   0.2532
  12.100   1.2990   0.03794   0.02991  -0.0245  0.0572  1.0000  -4.8660   0.0000   0.0000   0.0000   0.2526
  12.200   1.3022   0.03860   0.03064  -0.0240  0.0560  1.0000  -4.9129   0.0000   0.0000   0.0000   0.2520
  12.300   1.3054   0.03927   0.03135  -0.0235  0.0550  1.0000  -4.9615   0.0000   0.0000   0.0000   0.2514
  12.400   1.3086   0.03993   0.03202  -0.0230  0.0540  1.0000  -5.0121   0.0000   0.0000   0.0000   0.2508
  12.500   1.3119   0.04060   0.03267  -0.0225  0.0531  1.0000  -5.0647   0.0000   0.0000   0.0000   0.2502
  12.600   1.3162   0.04127   0.03328  -0.0220  0.0522  1.0000  -5.1214   0.0000   0.0000   0.0000   0.2495
  12.700   1.3196   0.04199   0.03405  -0.0214  0.0514  1.0000  -5.1673   0.0000   0.0000   0.0000   0.2489
  12.800   1.3227   0.04271   0.03486  -0.0209  0.0506  1.0000  -5.2110   0.0000   0.0000   0.0000   0.2483
  12.900   1.3260   0.04343   0.03564  -0.0205  0.0498  1.0000  -5.2568   0.0000   0.0000   0.0000   0.2478
  13.000   1.3295   0.04414   0.03638  -0.0200  0.0491  1.0000  -5.3051   0.0000   0.0000   0.0000   0.2472
  13.100   1.3332   0.04482   0.03709  -0.0196  0.0484  1.0000  -5.3561   0.0000   0.0000   0.0000   0.2467
  13.200   1.3372   0.04548   0.03774  -0.0191  0.0477  1.0000  -5.4103   0.0000   0.0000   0.0000   0.2461
  13.300   1.3423   0.04609   0.03832  -0.0187  0.0470  1.0000  -5.4709   0.0000   0.0000   0.0000   0.2456
  13.400   1.3509   0.04662   0.03875  -0.0182  0.0462  1.0000  -5.5447   0.0000   0.0000   0.0000   0.2450
  13.500   1.3519   0.04750   0.03975  -0.0178  0.0457  1.0000  -5.5774   0.0000   0.0000   0.0000   0.2444
  13.600   1.3535   0.04837   0.04072  -0.0173  0.0451  1.0000  -5.6135   0.0000   0.0000   0.0000   0.2439
  13.700   1.3556   0.04921   0.04164  -0.0169  0.0445  1.0000  -5.6533   0.0000   0.0000   0.0000   0.2434
  13.800   1.3578   0.05005   0.04254  -0.0165  0.0439  1.0000  -5.6950   0.0000   0.0000   0.0000   0.2429
  13.900   1.3601   0.05088   0.04343  -0.0162  0.0433  1.0000  -5.7394   0.0000   0.0000   0.0000   0.2425
  14.000   1.3626   0.05168   0.04427  -0.0159  0.0427  1.0000  -5.7923   0.0000   0.0000   0.0000   0.2420
  14.100   1.3659   0.05242   0.04501  -0.0156  0.0421  1.0000  -5.8513   0.0000   0.0000   0.0000   0.2416
  14.200   1.3708   0.05307   0.04563  -0.0152  0.0416  1.0000  -5.9196   0.0000   0.0000   0.0000   0.2411
  14.300   1.3828   0.05345   0.04589  -0.0147  0.0408  1.0000  -6.0231   0.0000   0.0000   0.0000   0.2405
  14.400   1.3814   0.05457   0.04714  -0.0144  0.0405  1.0000  -6.0477   0.0000   0.0000   0.0000   0.2401
  14.500   1.3807   0.05569   0.04837  -0.0140  0.0402  1.0000  -6.0756   0.0000   0.0000   0.0000   0.2396
  14.600   1.3805   0.05680   0.04959  -0.0137  0.0398  1.0000  -6.1056   0.0000   0.0000   0.0000   0.2392
  14.700   1.3806   0.05792   0.05081  -0.0134  0.0395  1.0000  -6.1371   0.0000   0.0000   0.0000   0.2388
  14.800   1.3809   0.05903   0.05201  -0.0131  0.0391  1.0000  -6.1701   0.0000   0.0000   0.0000   0.2384
  14.900   1.3814   0.06014   0.05320  -0.0129  0.0388  1.0000  -6.2045   0.0000   0.0000   0.0000   0.2380
  15.000   1.3820   0.06124   0.05437  -0.0126  0.0384  1.0000  -6.2407   0.0000   0.0000   0.0000   0.2377


