xflr5 v6.59

 Calculated polar for: NACA 0008

 1 1 Reynolds number fixed          Mach number fixed         

 xtrf =   1.000 (top)        1.000 (bottom)
 Mach =   0.050     Re =     0.060 e 6     Ncrit =   5.000

  alpha     CL        CD       CDp       Cm    Top Xtr Bot Xtr   Cpmin    Chinge    XCp    
 ------- -------- --------- --------- -------- ------- ------- -------- --------- ---------
  -3.000  -0.3739   0.01518   0.00641   0.0078  1.0000  0.7173  -1.4061   0.0000   0.0000   0.0000   0.2683
  -2.900  -0.3645   0.01510   0.00638   0.0087  1.0000  0.7448  -1.3478   0.0000   0.0000   0.0000   0.2713
  -2.800  -0.3542   0.01505   0.00636   0.0094  1.0000  0.7706  -1.2879   0.0000   0.0000   0.0000   0.2741
  -2.700  -0.3431   0.01502   0.00634   0.0100  1.0000  0.7949  -1.2286   0.0000   0.0000   0.0000   0.2766
  -2.600  -0.3312   0.01500   0.00631   0.0103  1.0000  0.8177  -1.1721   0.0000   0.0000   0.0000   0.2787
  -2.500  -0.3185   0.01499   0.00627   0.0105  1.0000  0.8392  -1.1143   0.0000   0.0000   0.0000   0.2804
  -2.400  -0.3039   0.01500   0.00622   0.0102  1.0000  0.8587  -1.0527   0.0000   0.0000   0.0000   0.2813
  -2.300  -0.2893   0.01500   0.00616   0.0099  1.0000  0.8775  -0.9921   0.0000   0.0000   0.0000   0.2818
  -2.200  -0.2725   0.01501   0.00611   0.0091  1.0000  0.8940  -0.9319   0.0000   0.0000   0.0000   0.2810
  -2.100  -0.2553   0.01502   0.00605   0.0081  1.0000  0.9095  -0.8735   0.0000   0.0000   0.0000   0.2794
  -2.000  -0.2382   0.01501   0.00597   0.0071  1.0000  0.9244  -0.8163   0.0000   0.0000   0.0000   0.2774
  -1.900  -0.2189   0.01501   0.00589   0.0056  1.0000  0.9370  -0.7594   0.0000   0.0000   0.0000   0.2731
  -1.800  -0.1989   0.01499   0.00578   0.0039  1.0000  0.9487  -0.7039   0.0000   0.0000   0.0000   0.2671
  -1.700  -0.1780   0.01496   0.00567   0.0019  1.0000  0.9593  -0.6504   0.0000   0.0000   0.0000   0.2582
  -1.600  -0.1564   0.01492   0.00556  -0.0002  1.0000  0.9691  -0.5989   0.0000   0.0000   0.0000   0.2458
  -1.500  -0.1350   0.01487   0.00543  -0.0024  1.0000  0.9785  -0.5524   0.0000   0.0000   0.0000   0.2291
  -1.400  -0.1135   0.01480   0.00531  -0.0047  1.0000  0.9875  -0.5087   0.0000   0.0000   0.0000   0.2055
  -1.300  -0.0916   0.01471   0.00516  -0.0071  1.0000  0.9956  -0.4680   0.0000   0.0000   0.0000   0.1692
  -1.200  -0.0766   0.01463   0.00504  -0.0082  1.0000  1.0000  -0.4388   0.0000   0.0000   0.0000   0.1396
  -1.100  -0.0699   0.01455   0.00493  -0.0076  1.0000  1.0000  -0.4206   0.0000   0.0000   0.0000   0.1374
  -1.000  -0.0633   0.01448   0.00485  -0.0070  1.0000  1.0000  -0.4038   0.0000   0.0000   0.0000   0.1351
  -0.900  -0.0567   0.01442   0.00477  -0.0064  1.0000  1.0000  -0.3877   0.0000   0.0000   0.0000   0.1330
  -0.800  -0.0502   0.01437   0.00470  -0.0058  1.0000  1.0000  -0.3725   0.0000   0.0000   0.0000   0.1309
  -0.700  -0.0437   0.01432   0.00464  -0.0051  1.0000  1.0000  -0.3582   0.0000   0.0000   0.0000   0.1290
  -0.600  -0.0373   0.01428   0.00459  -0.0044  1.0000  1.0000  -0.3447   0.0000   0.0000   0.0000   0.1273
  -0.500  -0.0310   0.01425   0.00455  -0.0037  1.0000  1.0000  -0.3321   0.0000   0.0000   0.0000   0.1257
  -0.400  -0.0247   0.01422   0.00451  -0.0030  1.0000  1.0000  -0.3203   0.0000   0.0000   0.0000   0.1244
  -0.300  -0.0185   0.01420   0.00449  -0.0023  1.0000  1.0000  -0.3091   0.0000   0.0000   0.0000   0.1234
  -0.200  -0.0123   0.01419   0.00447  -0.0015  1.0000  1.0000  -0.2986   0.0000   0.0000   0.0000   0.1226
  -0.100  -0.0061   0.01418   0.00446  -0.0008  1.0000  1.0000  -0.2886   0.0000   0.0000   0.0000   0.1215
   0.000   0.0000   0.01417   0.00446  -0.0000  1.0000  1.0000  -0.2792   0.0000   0.0000   0.0000   0.4206
   0.100   0.0061   0.01418   0.00446   0.0008  1.0000  1.0000  -0.2886   0.0000   0.0000   0.0000   0.1215
   0.200   0.0123   0.01419   0.00447   0.0015  1.0000  1.0000  -0.2986   0.0000   0.0000   0.0000   0.1226
   0.300   0.0185   0.01420   0.00449   0.0023  1.0000  1.0000  -0.3091   0.0000   0.0000   0.0000   0.1234
   0.400   0.0247   0.01422   0.00451   0.0030  1.0000  1.0000  -0.3203   0.0000   0.0000   0.0000   0.1245
   0.500   0.0310   0.01425   0.00455   0.0037  1.0000  1.0000  -0.3321   0.0000   0.0000   0.0000   0.1258
   0.600   0.0373   0.01428   0.00459   0.0044  1.0000  1.0000  -0.3447   0.0000   0.0000   0.0000   0.1273
   0.700   0.0437   0.01432   0.00464   0.0051  1.0000  1.0000  -0.3582   0.0000   0.0000   0.0000   0.1291
   0.800   0.0502   0.01437   0.00470   0.0058  1.0000  1.0000  -0.3725   0.0000   0.0000   0.0000   0.1310
   0.900   0.0567   0.01442   0.00477   0.0064  1.0000  1.0000  -0.3877   0.0000   0.0000   0.0000   0.1330
   1.000   0.0633   0.01448   0.00484   0.0070  1.0000  1.0000  -0.4038   0.0000   0.0000   0.0000   0.1352
   1.100   0.0699   0.01455   0.00493   0.0076  1.0000  1.0000  -0.4206   0.0000   0.0000   0.0000   0.1374
   1.200   0.0766   0.01463   0.00504   0.0082  1.0000  1.0000  -0.4388   0.0000   0.0000   0.0000   0.1397
   1.300   0.0916   0.01471   0.00516   0.0071  0.9956  1.0000  -0.4680   0.0000   0.0000   0.0000   0.1691
   1.400   0.1135   0.01480   0.00530   0.0047  0.9875  1.0000  -0.5087   0.0000   0.0000   0.0000   0.2055
   1.500   0.1350   0.01487   0.00543   0.0024  0.9786  1.0000  -0.5523   0.0000   0.0000   0.0000   0.2291
   1.600   0.1564   0.01492   0.00556   0.0003  0.9691  1.0000  -0.5989   0.0000   0.0000   0.0000   0.2458
   1.700   0.1779   0.01496   0.00567  -0.0019  0.9593  1.0000  -0.6504   0.0000   0.0000   0.0000   0.2582
   1.800   0.1989   0.01499   0.00578  -0.0039  0.9487  1.0000  -0.7039   0.0000   0.0000   0.0000   0.2671
   1.900   0.2189   0.01501   0.00589  -0.0056  0.9370  1.0000  -0.7594   0.0000   0.0000   0.0000   0.2731
   2.000   0.2382   0.01501   0.00597  -0.0071  0.9244  1.0000  -0.8163   0.0000   0.0000   0.0000   0.2774
   2.100   0.2553   0.01501   0.00605  -0.0081  0.9096  1.0000  -0.8735   0.0000   0.0000   0.0000   0.2794
   2.200   0.2725   0.01501   0.00611  -0.0091  0.8940  1.0000  -0.9319   0.0000   0.0000   0.0000   0.2809
   2.300   0.2893   0.01500   0.00616  -0.0099  0.8775  1.0000  -0.9921   0.0000   0.0000   0.0000   0.2818
   2.400   0.3039   0.01500   0.00621  -0.0102  0.8587  1.0000  -1.0526   0.0000   0.0000   0.0000   0.2813
   2.500   0.3185   0.01499   0.00627  -0.0105  0.8392  1.0000  -1.1142   0.0000   0.0000   0.0000   0.2804
   2.600   0.3312   0.01500   0.00631  -0.0103  0.8177  1.0000  -1.1720   0.0000   0.0000   0.0000   0.2787
   2.700   0.3431   0.01502   0.00634  -0.0100  0.7948  1.0000  -1.2286   0.0000   0.0000   0.0000   0.2765
   2.800   0.3542   0.01505   0.00636  -0.0094  0.7706  1.0000  -1.2878   0.0000   0.0000   0.0000   0.2741
   2.900   0.3645   0.01510   0.00638  -0.0087  0.7448  1.0000  -1.3478   0.0000   0.0000   0.0000   0.2713
   3.000   0.3739   0.01518   0.00641  -0.0078  0.7173  1.0000  -1.4060   0.0000   0.0000   0.0000   0.2683
   3.100   0.3829   0.01528   0.00644  -0.0069  0.6884  1.0000  -1.4634   0.0000   0.0000   0.0000   0.2654
   3.200   0.3915   0.01540   0.00648  -0.0059  0.6580  1.0000  -1.5202   0.0000   0.0000   0.0000   0.2625
   3.300   0.3998   0.01555   0.00654  -0.0050  0.6258  1.0000  -1.5764   0.0000   0.0000   0.0000   0.2597
   3.400   0.4080   0.01572   0.00663  -0.0040  0.5921  1.0000  -1.6325   0.0000   0.0000   0.0000   0.2570
   3.500   0.4159   0.01593   0.00670  -0.0030  0.5573  1.0000  -1.6883   0.0000   0.0000   0.0000   0.2545
   3.600   0.4238   0.01615   0.00679  -0.0022  0.5203  1.0000  -1.7485   0.0000   0.0000   0.0000   0.2522
   3.700   0.4316   0.01641   0.00689  -0.0013  0.4821  1.0000  -1.8110   0.0000   0.0000   0.0000   0.2501
   3.800   0.4393   0.01669   0.00701  -0.0006  0.4424  1.0000  -1.8734   0.0000   0.0000   0.0000   0.2482
   3.900   0.4471   0.01701   0.00716   0.0001  0.4011  1.0000  -1.9357   0.0000   0.0000   0.0000   0.2466
   4.000   0.4550   0.01736   0.00733   0.0008  0.3583  1.0000  -1.9982   0.0000   0.0000   0.0000   0.2452
   4.100   0.4633   0.01776   0.00753   0.0012  0.3143  1.0000  -2.0617   0.0000   0.0000   0.0000   0.2442
   4.200   0.4717   0.01820   0.00776   0.0015  0.2714  1.0000  -2.1247   0.0000   0.0000   0.0000   0.2434
   4.300   0.4803   0.01868   0.00804   0.0018  0.2317  1.0000  -2.1871   0.0000   0.0000   0.0000   0.2428
   4.500   0.4977   0.01970   0.00873   0.0023  0.1716  1.0000  -2.3086   0.0000   0.0000   0.0000   0.2418
   4.600   0.5065   0.02020   0.00911   0.0026  0.1512  1.0000  -2.3675   0.0000   0.0000   0.0000   0.2413
   4.700   0.5153   0.02071   0.00952   0.0029  0.1356  1.0000  -2.4259   0.0000   0.0000   0.0000   0.2407
   4.800   0.5243   0.02119   0.00994   0.0033  0.1231  1.0000  -2.4859   0.0000   0.0000   0.0000   0.2401
   4.900   0.5332   0.02166   0.01038   0.0036  0.1129  1.0000  -2.5528   0.0000   0.0000   0.0000   0.2395
   5.000   0.5421   0.02214   0.01083   0.0040  0.1048  1.0000  -2.6192   0.0000   0.0000   0.0000   0.2389
   5.100   0.5510   0.02261   0.01128   0.0044  0.0978  1.0000  -2.6859   0.0000   0.0000   0.0000   0.2383
   5.200   0.5598   0.02310   0.01174   0.0047  0.0923  1.0000  -2.7533   0.0000   0.0000   0.0000   0.2377
   5.300   0.5688   0.02357   0.01224   0.0051  0.0869  1.0000  -2.8189   0.0000   0.0000   0.0000   0.2370
   5.400   0.5778   0.02406   0.01275   0.0055  0.0822  1.0000  -2.8839   0.0000   0.0000   0.0000   0.2364
   5.500   0.5866   0.02456   0.01325   0.0059  0.0785  1.0000  -2.9530   0.0000   0.0000   0.0000   0.2359
   5.600   0.5960   0.02510   0.01386   0.0063  0.0749  1.0000  -3.0120   0.0000   0.0000   0.0000   0.2353
   5.700   0.6048   0.02562   0.01436   0.0066  0.0718  1.0000  -3.0817   0.0000   0.0000   0.0000   0.2348
   5.800   0.6142   0.02617   0.01499   0.0070  0.0685  1.0000  -3.1421   0.0000   0.0000   0.0000   0.2343
   5.900   0.6233   0.02672   0.01554   0.0074  0.0657  1.0000  -3.2097   0.0000   0.0000   0.0000   0.2339
   6.000   0.6325   0.02735   0.01618   0.0077  0.0638  1.0000  -3.2717   0.0000   0.0000   0.0000   0.2334
   6.100   0.6421   0.02804   0.01699   0.0081  0.0616  1.0000  -3.3226   0.0000   0.0000   0.0000   0.2329
   6.200   0.6513   0.02865   0.01764   0.0084  0.0595  1.0000  -3.3870   0.0000   0.0000   0.0000   0.2325
   6.300   0.6603   0.02929   0.01828   0.0087  0.0575  1.0000  -3.4536   0.0000   0.0000   0.0000   0.2322
   6.400   0.6697   0.03003   0.01919   0.0091  0.0553  1.0000  -3.5008   0.0000   0.0000   0.0000   0.2318
   6.500   0.6788   0.03071   0.01996   0.0094  0.0535  1.0000  -3.5615   0.0000   0.0000   0.0000   0.2314
   6.600   0.6878   0.03144   0.02069   0.0097  0.0524  1.0000  -3.6380   0.0000   0.0000   0.0000   0.2312
   6.700   0.6970   0.03237   0.02175   0.0100  0.0514  1.0000  -3.6930   0.0000   0.0000   0.0000   0.2308
   6.800   0.7059   0.03341   0.02301   0.0105  0.0503  1.0000  -3.7338   0.0000   0.0000   0.0000   0.2303
   6.900   0.7145   0.03436   0.02415   0.0108  0.0490  1.0000  -3.7841   0.0000   0.0000   0.0000   0.2299
   7.000   0.7228   0.03517   0.02504   0.0111  0.0477  1.0000  -3.8518   0.0000   0.0000   0.0000   0.2296
   7.100   0.7311   0.03585   0.02571   0.0113  0.0465  1.0000  -3.9395   0.0000   0.0000   0.0000   0.2294
   7.200   0.7385   0.03703   0.02713   0.0118  0.0453  1.0000  -3.9701   0.0000   0.0000   0.0000   0.2289
   7.300   0.7456   0.03828   0.02865   0.0122  0.0443  1.0000  -3.9945   0.0000   0.0000   0.0000   0.2284
   7.400   0.7525   0.03952   0.03010   0.0126  0.0435  1.0000  -4.0240   0.0000   0.0000   0.0000   0.2280
   7.500   0.7591   0.04081   0.03159   0.0130  0.0430  1.0000  -4.0514   0.0000   0.0000   0.0000   0.2275
   7.600   0.7653   0.04211   0.03307   0.0134  0.0425  1.0000  -4.0788   0.0000   0.0000   0.0000   0.2271
   7.700   0.7712   0.04343   0.03457   0.0138  0.0421  1.0000  -4.1061   0.0000   0.0000   0.0000   0.2267
   7.800   0.7768   0.04475   0.03606   0.0142  0.0418  1.0000  -4.1336   0.0000   0.0000   0.0000   0.2263
   7.900   0.7823   0.04601   0.03744   0.0145  0.0414  1.0000  -4.1696   0.0000   0.0000   0.0000   0.2260
   8.000   0.7884   0.04706   0.03853   0.0147  0.0409  1.0000  -4.2301   0.0000   0.0000   0.0000   0.2258
   8.100   0.7912   0.04881   0.04051   0.0151  0.0406  1.0000  -4.2178   0.0000   0.0000   0.0000   0.2253
   8.200   0.7924   0.05076   0.04275   0.0155  0.0402  1.0000  -4.1842   0.0000   0.0000   0.0000   0.2249
   8.300   0.7930   0.05274   0.04498   0.0157  0.0399  1.0000  -4.1511   0.0000   0.0000   0.0000   0.2245
   8.400   0.7929   0.05472   0.04719   0.0159  0.0396  1.0000  -4.1188   0.0000   0.0000   0.0000   0.2242
   8.500   0.7922   0.05671   0.04937   0.0160  0.0393  1.0000  -4.0867   0.0000   0.0000   0.0000   0.2241
   8.600   0.7909   0.05871   0.05154   0.0160  0.0390  1.0000  -4.0541   0.0000   0.0000   0.0000   0.2240
   8.700   0.7889   0.06072   0.05370   0.0159  0.0388  1.0000  -4.0198   0.0000   0.0000   0.0000   0.2240
   8.800   0.7862   0.06277   0.05588   0.0157  0.0386  1.0000  -3.9827   0.0000   0.0000   0.0000   0.2241
   8.900   0.7827   0.06486   0.05809   0.0154  0.0386  1.0000  -3.9417   0.0000   0.0000   0.0000   0.2244
   9.000   0.7784   0.06701   0.06034   0.0149  0.0385  1.0000  -3.8962   0.0000   0.0000   0.0000   0.2248
   9.100   0.7733   0.06921   0.06262   0.0143  0.0386  1.0000  -3.8459   0.0000   0.0000   0.0000   0.2255
   9.200   0.7673   0.07148   0.06497   0.0135  0.0387  1.0000  -3.7899   0.0000   0.0000   0.0000   0.2264
   9.300   0.7603   0.07367   0.06721   0.0127  0.0389  1.0000  -3.7327   0.0000   0.0000   0.0000   0.2272
   9.400   0.7531   0.07602   0.06960   0.0114  0.0390  1.0000  -3.6725   0.0000   0.0000   0.0000   0.2285
   9.500   0.7464   0.07859   0.07219   0.0097  0.0393  1.0000  -3.6088   0.0000   0.0000   0.0000   0.2307
   9.600   0.7402   0.08138   0.07499   0.0074  0.0395  1.0000  -3.5420   0.0000   0.0000   0.0000   0.2335
   9.700   0.7350   0.08439   0.07800   0.0049  0.0397  1.0000  -3.4727   0.0000   0.0000   0.0000   0.2368
   9.800   0.7308   0.08759   0.08119   0.0023  0.0399  1.0000  -3.4007   0.0000   0.0000   0.0000   0.2403
   9.900   0.7275   0.09075   0.08435  -0.0001  0.0401  1.0000  -3.3313   0.0000   0.0000   0.0000   0.2435
  10.000   0.7246   0.09370   0.08729  -0.0021  0.0402  1.0000  -3.2690   0.0000   0.0000   0.0000   0.2463
  10.100   0.7220   0.09648   0.09004  -0.0039  0.0403  1.0000  -3.2126   0.0000   0.0000   0.0000   0.2487
  10.200   0.7196   0.09913   0.09267  -0.0055  0.0404  1.0000  -3.1606   0.0000   0.0000   0.0000   0.2509
  10.300   0.7175   0.10167   0.09519  -0.0070  0.0405  1.0000  -3.1125   0.0000   0.0000   0.0000   0.2529
  10.400   0.7157   0.10412   0.09761  -0.0084  0.0405  1.0000  -3.0681   0.0000   0.0000   0.0000   0.2548
  10.500   0.7141   0.10648   0.09996  -0.0096  0.0406  1.0000  -3.0273   0.0000   0.0000   0.0000   0.2565
  10.600   0.7129   0.10875   0.10221  -0.0108  0.0407  1.0000  -2.9906   0.0000   0.0000   0.0000   0.2581
  10.700   0.7120   0.11092   0.10437  -0.0118  0.0407  1.0000  -2.9595   0.0000   0.0000   0.0000   0.2595
  10.900   0.7021   0.11784   0.11123  -0.0163  0.0421  1.0000  -2.7189   0.0000   0.0000   0.0000   0.2662
  11.000   0.7002   0.12035   0.11372  -0.0177  0.0424  1.0000  -2.6607   0.0000   0.0000   0.0000   0.2681
  11.100   0.6989   0.12269   0.11604  -0.0188  0.0428  1.0000  -2.6120   0.0000   0.0000   0.0000   0.2698
  11.200   0.6981   0.12491   0.11824  -0.0199  0.0432  1.0000  -2.5705   0.0000   0.0000   0.0000   0.2713
  11.300   0.6976   0.12704   0.12036  -0.0209  0.0436  1.0000  -2.5346   0.0000   0.0000   0.0000   0.2726
  11.400   0.6975   0.12909   0.12240  -0.0218  0.0440  1.0000  -2.5034   0.0000   0.0000   0.0000   0.2739
  11.500   0.6976   0.13108   0.12437  -0.0226  0.0443  1.0000  -2.4767   0.0000   0.0000   0.0000   0.2749
  11.600   0.6982   0.13299   0.12628  -0.0233  0.0447  1.0000  -2.4548   0.0000   0.0000   0.0000   0.2759
  11.700   0.6991   0.13483   0.12811  -0.0239  0.0451  1.0000  -2.4383   0.0000   0.0000   0.0000   0.2767
  11.800   0.7006   0.13658   0.12986  -0.0244  0.0455  1.0000  -2.4294   0.0000   0.0000   0.0000   0.2773
  11.900   0.7028   0.13819   0.13146  -0.0247  0.0459  1.0000  -2.4327   0.0000   0.0000   0.0000   0.2775
  12.100   0.6984   0.14363   0.13687  -0.0281  0.0492  1.0000  -2.2569   0.0000   0.0000   0.0000   0.2825
  12.200   0.6997   0.14551   0.13875  -0.0288  0.0503  1.0000  -2.2422   0.0000   0.0000   0.0000   0.2833
  12.300   0.7031   0.14713   0.14036  -0.0288  0.0513  1.0000  -2.2601   0.0000   0.0000   0.0000   0.2831
  12.500   0.7109   0.15588   0.14919  -0.0309  0.0854  1.0000  -2.0338   0.0000   0.0000   0.0000   0.2859
  12.600   0.7121   0.15764   0.15095  -0.0317  0.0854  1.0000  -2.0249   0.0000   0.0000   0.0000   0.2868
  12.700   0.7129   0.15937   0.15267  -0.0326  0.0854  1.0000  -2.0117   0.0000   0.0000   0.0000   0.2879
  12.800   0.7132   0.16106   0.15435  -0.0336  0.0853  1.0000  -1.9944   0.0000   0.0000   0.0000   0.2892
  12.900   0.7131   0.16269   0.15597  -0.0347  0.0852  1.0000  -1.9731   0.0000   0.0000   0.0000   0.2906
  13.000   0.7124   0.16425   0.15751  -0.0359  0.0850  1.0000  -1.9478   0.0000   0.0000   0.0000   0.2922
  13.100   0.7114   0.16572   0.15897  -0.0371  0.0845  1.0000  -1.9191   0.0000   0.0000   0.0000   0.2940
  13.200   0.7104   0.16711   0.16034  -0.0384  0.0836  1.0000  -1.8923   0.0000   0.0000   0.0000   0.2958
  13.300   0.7108   0.16853   0.16175  -0.0393  0.0825  1.0000  -1.8792   0.0000   0.0000   0.0000   0.2970
  13.400   0.7126   0.16998   0.16320  -0.0400  0.0812  1.0000  -1.8790   0.0000   0.0000   0.0000   0.2977
  13.500   0.7159   0.17148   0.16472  -0.0402  0.0798  1.0000  -1.8961   0.0000   0.0000   0.0000   0.2977
  13.600   0.7267   0.17374   0.16700  -0.0388  0.0781  1.0000  -1.9848   0.0000   0.0000   0.0000   0.2948
  13.700   0.7260   0.17516   0.16840  -0.0400  0.0779  1.0000  -1.9565   0.0000   0.0000   0.0000   0.2964
  13.800   0.7253   0.17649   0.16972  -0.0413  0.0777  1.0000  -1.9274   0.0000   0.0000   0.0000   0.2982
  13.900   0.7246   0.17778   0.17099  -0.0426  0.0772  1.0000  -1.8978   0.0000   0.0000   0.0000   0.2999
  14.000   0.7246   0.17908   0.17228  -0.0438  0.0762  1.0000  -1.8748   0.0000   0.0000   0.0000   0.3015
  14.100   0.7259   0.18046   0.17365  -0.0447  0.0751  1.0000  -1.8658   0.0000   0.0000   0.0000   0.3024
  14.200   0.7281   0.18191   0.17510  -0.0453  0.0741  1.0000  -1.8657   0.0000   0.0000   0.0000   0.3031
  14.300   0.7309   0.18339   0.17659  -0.0459  0.0733  1.0000  -1.8707   0.0000   0.0000   0.0000   0.3035
  14.400   0.7340   0.18491   0.17810  -0.0463  0.0726  1.0000  -1.8792   0.0000   0.0000   0.0000   0.3037
  14.500   0.7378   0.18655   0.17975  -0.0466  0.0720  1.0000  -1.8947   0.0000   0.0000   0.0000   0.3037
  14.600   0.7429   0.18844   0.18166  -0.0465  0.0715  1.0000  -1.9224   0.0000   0.0000   0.0000   0.3031
  14.700   0.7480   0.19055   0.18376  -0.0466  0.0711  1.0000  -1.9465   0.0000   0.0000   0.0000   0.3026
  14.800   0.7485   0.19182   0.18501  -0.0477  0.0710  1.0000  -1.9234   0.0000   0.0000   0.0000   0.3040
  14.900   0.7491   0.19307   0.18626  -0.0489  0.0708  1.0000  -1.8996   0.0000   0.0000   0.0000   0.3054
  15.000   0.7497   0.19431   0.18749  -0.0501  0.0705  1.0000  -1.8754   0.0000   0.0000   0.0000   0.3069


