xflr5 v6.59

 Calculated polar for: NACA 0008

 1 1 Reynolds number fixed          Mach number fixed         

 xtrf =   1.000 (top)        1.000 (bottom)
 Mach =   0.050     Re =     0.500 e 6     Ncrit =   5.000

  alpha     CL        CD       CDp       Cm    Top Xtr Bot Xtr   Cpmin    Chinge    XCp    
 ------- -------- --------- --------- -------- ------- ------- -------- --------- ---------
  -3.000  -0.3517   0.00838   0.00209   0.0031  0.9948  0.1765  -1.4264   0.0000   0.0000   0.0000   0.2561
  -2.900  -0.3380   0.00823   0.00202   0.0024  0.9933  0.1981  -1.3548   0.0000   0.0000   0.0000   0.2545
  -2.800  -0.3247   0.00806   0.00195   0.0018  0.9915  0.2212  -1.2853   0.0000   0.0000   0.0000   0.2531
  -2.700  -0.3113   0.00791   0.00189   0.0013  0.9896  0.2449  -1.2166   0.0000   0.0000   0.0000   0.2515
  -2.600  -0.2976   0.00775   0.00183   0.0006  0.9878  0.2695  -1.1521   0.0000   0.0000   0.0000   0.2495
  -2.500  -0.2844   0.00760   0.00176   0.0001  0.9856  0.2944  -1.0927   0.0000   0.0000   0.0000   0.2477
  -2.400  -0.2716   0.00745   0.00171  -0.0004  0.9830  0.3189  -1.0349   0.0000   0.0000   0.0000   0.2461
  -2.300  -0.2581   0.00731   0.00166  -0.0010  0.9807  0.3441  -0.9765   0.0000   0.0000   0.0000   0.2438
  -2.200  -0.2456   0.00717   0.00161  -0.0013  0.9774  0.3685  -0.9218   0.0000   0.0000   0.0000   0.2421
  -2.100  -0.2326   0.00703   0.00157  -0.0018  0.9743  0.3932  -0.8716   0.0000   0.0000   0.0000   0.2399
  -2.000  -0.2197   0.00690   0.00153  -0.0022  0.9711  0.4178  -0.8221   0.0000   0.0000   0.0000   0.2374
  -1.900  -0.2072   0.00678   0.00149  -0.0026  0.9672  0.4420  -0.7742   0.0000   0.0000   0.0000   0.2353
  -1.800  -0.1942   0.00665   0.00146  -0.0030  0.9637  0.4661  -0.7295   0.0000   0.0000   0.0000   0.2322
  -1.700  -0.1821   0.00654   0.00142  -0.0032  0.9588  0.4890  -0.6880   0.0000   0.0000   0.0000   0.2301
  -1.600  -0.1694   0.00643   0.00139  -0.0035  0.9544  0.5123  -0.6466   0.0000   0.0000   0.0000   0.2267
  -1.500  -0.1576   0.00632   0.00136  -0.0037  0.9488  0.5341  -0.6101   0.0000   0.0000   0.0000   0.2244
  -1.400  -0.1456   0.00622   0.00133  -0.0038  0.9431  0.5558  -0.5739   0.0000   0.0000   0.0000   0.2213
  -1.300  -0.1339   0.00612   0.00131  -0.0039  0.9367  0.5766  -0.5413   0.0000   0.0000   0.0000   0.2185
  -1.200  -0.1226   0.00603   0.00128  -0.0039  0.9296  0.5968  -0.5105   0.0000   0.0000   0.0000   0.2161
  -1.100  -0.1115   0.00595   0.00126  -0.0038  0.9221  0.6163  -0.4817   0.0000   0.0000   0.0000   0.2136
  -1.000  -0.1006   0.00587   0.00124  -0.0036  0.9139  0.6351  -0.4554   0.0000   0.0000   0.0000   0.2115
  -0.900  -0.0901   0.00580   0.00121  -0.0034  0.9048  0.6535  -0.4310   0.0000   0.0000   0.0000   0.2100
  -0.800  -0.0798   0.00574   0.00120  -0.0031  0.8952  0.6713  -0.4084   0.0000   0.0000   0.0000   0.2085
  -0.700  -0.0695   0.00568   0.00118  -0.0028  0.8851  0.6885  -0.3874   0.0000   0.0000   0.0000   0.2074
  -0.600  -0.0595   0.00563   0.00116  -0.0024  0.8743  0.7053  -0.3681   0.0000   0.0000   0.0000   0.2068
  -0.500  -0.0495   0.00559   0.00115  -0.0020  0.8630  0.7218  -0.3502   0.0000   0.0000   0.0000   0.2063
  -0.400  -0.0396   0.00556   0.00114  -0.0017  0.8511  0.7379  -0.3337   0.0000   0.0000   0.0000   0.2060
  -0.300  -0.0296   0.00553   0.00113  -0.0012  0.8386  0.7536  -0.3182   0.0000   0.0000   0.0000   0.2058
  -0.200  -0.0198   0.00551   0.00113  -0.0008  0.8256  0.7689  -0.3040   0.0000   0.0000   0.0000   0.2057
  -0.100  -0.0099   0.00550   0.00112  -0.0004  0.8122  0.7838  -0.2906   0.0000   0.0000   0.0000   0.2056
   0.000  -0.0000   0.00550   0.00112   0.0000  0.7982  0.7982  -0.2781   0.0000   0.0000   0.0000   0.5110
   0.100   0.0099   0.00550   0.00112   0.0004  0.7838  0.8122  -0.2906   0.0000   0.0000   0.0000   0.2056
   0.200   0.0198   0.00551   0.00113   0.0008  0.7689  0.8256  -0.3040   0.0000   0.0000   0.0000   0.2057
   0.300   0.0296   0.00553   0.00113   0.0012  0.7536  0.8386  -0.3182   0.0000   0.0000   0.0000   0.2058
   0.400   0.0396   0.00556   0.00114   0.0017  0.7379  0.8511  -0.3337   0.0000   0.0000   0.0000   0.2060
   0.500   0.0495   0.00559   0.00115   0.0020  0.7218  0.8630  -0.3502   0.0000   0.0000   0.0000   0.2063
   0.600   0.0595   0.00563   0.00116   0.0024  0.7053  0.8743  -0.3681   0.0000   0.0000   0.0000   0.2068
   0.700   0.0695   0.00568   0.00118   0.0028  0.6886  0.8851  -0.3874   0.0000   0.0000   0.0000   0.2074
   0.800   0.0798   0.00574   0.00120   0.0031  0.6713  0.8952  -0.4084   0.0000   0.0000   0.0000   0.2085
   0.900   0.0901   0.00580   0.00121   0.0034  0.6535  0.9048  -0.4310   0.0000   0.0000   0.0000   0.2100
   1.000   0.1006   0.00587   0.00124   0.0036  0.6351  0.9139  -0.4554   0.0000   0.0000   0.0000   0.2115
   1.100   0.1115   0.00595   0.00126   0.0038  0.6162  0.9221  -0.4817   0.0000   0.0000   0.0000   0.2136
   1.200   0.1226   0.00603   0.00128   0.0039  0.5968  0.9296  -0.5105   0.0000   0.0000   0.0000   0.2161
   1.300   0.1339   0.00612   0.00131   0.0039  0.5765  0.9367  -0.5413   0.0000   0.0000   0.0000   0.2185
   1.400   0.1456   0.00622   0.00133   0.0038  0.5559  0.9431  -0.5739   0.0000   0.0000   0.0000   0.2213
   1.500   0.1576   0.00632   0.00136   0.0037  0.5341  0.9487  -0.6101   0.0000   0.0000   0.0000   0.2244
   1.600   0.1694   0.00643   0.00139   0.0035  0.5123  0.9544  -0.6466   0.0000   0.0000   0.0000   0.2267
   1.700   0.1821   0.00654   0.00142   0.0032  0.4890  0.9588  -0.6880   0.0000   0.0000   0.0000   0.2300
   1.800   0.1942   0.00665   0.00146   0.0030  0.4661  0.9637  -0.7295   0.0000   0.0000   0.0000   0.2322
   1.900   0.2072   0.00678   0.00149   0.0026  0.4420  0.9672  -0.7742   0.0000   0.0000   0.0000   0.2353
   2.000   0.2197   0.00690   0.00153   0.0022  0.4178  0.9712  -0.8221   0.0000   0.0000   0.0000   0.2374
   2.100   0.2326   0.00703   0.00157   0.0018  0.3932  0.9743  -0.8716   0.0000   0.0000   0.0000   0.2399
   2.200   0.2456   0.00717   0.00161   0.0013  0.3686  0.9774  -0.9218   0.0000   0.0000   0.0000   0.2421
   2.300   0.2581   0.00731   0.00166   0.0010  0.3442  0.9807  -0.9765   0.0000   0.0000   0.0000   0.2438
   2.400   0.2716   0.00745   0.00171   0.0004  0.3189  0.9830  -1.0349   0.0000   0.0000   0.0000   0.2461
   2.500   0.2844   0.00760   0.00176  -0.0001  0.2944  0.9857  -1.0927   0.0000   0.0000   0.0000   0.2477
   2.600   0.2976   0.00775   0.00183  -0.0006  0.2695  0.9879  -1.1521   0.0000   0.0000   0.0000   0.2495
   2.700   0.3113   0.00791   0.00189  -0.0013  0.2449  0.9896  -1.2166   0.0000   0.0000   0.0000   0.2515
   2.800   0.3247   0.00806   0.00195  -0.0018  0.2212  0.9915  -1.2853   0.0000   0.0000   0.0000   0.2531
   2.900   0.3380   0.00823   0.00202  -0.0024  0.1981  0.9933  -1.3548   0.0000   0.0000   0.0000   0.2545
   3.000   0.3517   0.00838   0.00209  -0.0031  0.1765  0.9948  -1.4265   0.0000   0.0000   0.0000   0.2561
   3.100   0.3653   0.00855   0.00216  -0.0037  0.1559  0.9964  -1.4984   0.0000   0.0000   0.0000   0.2575
   3.200   0.3788   0.00870   0.00224  -0.0043  0.1373  0.9979  -1.5714   0.0000   0.0000   0.0000   0.2587
   3.300   0.3925   0.00885   0.00232  -0.0050  0.1207  0.9992  -1.6474   0.0000   0.0000   0.0000   0.2600
   3.400   0.4045   0.00900   0.00241  -0.0053  0.1066  1.0000  -1.7264   0.0000   0.0000   0.0000   0.2602
   3.500   0.4142   0.00912   0.00249  -0.0050  0.0953  1.0000  -1.7985   0.0000   0.0000   0.0000   0.2593
   3.700   0.4337   0.00937   0.00265  -0.0045  0.0768  1.0000  -1.9454   0.0000   0.0000   0.0000   0.2575
   3.800   0.4434   0.00948   0.00273  -0.0043  0.0693  1.0000  -2.0201   0.0000   0.0000   0.0000   0.2567
   3.900   0.4532   0.00960   0.00282  -0.0041  0.0629  1.0000  -2.0958   0.0000   0.0000   0.0000   0.2559
   4.000   0.4630   0.00972   0.00291  -0.0038  0.0572  1.0000  -2.1723   0.0000   0.0000   0.0000   0.2551
   4.200   0.4827   0.00995   0.00310  -0.0033  0.0477  1.0000  -2.3279   0.0000   0.0000   0.0000   0.2536
   4.300   0.4925   0.01006   0.00321  -0.0031  0.0440  1.0000  -2.4068   0.0000   0.0000   0.0000   0.2529
   4.400   0.5023   0.01018   0.00331  -0.0028  0.0409  1.0000  -2.4864   0.0000   0.0000   0.0000   0.2522
   4.500   0.5123   0.01028   0.00341  -0.0026  0.0382  1.0000  -2.5768   0.0000   0.0000   0.0000   0.2516
   4.600   0.5220   0.01042   0.00353  -0.0023  0.0356  1.0000  -2.6684   0.0000   0.0000   0.0000   0.2510
   4.700   0.5320   0.01052   0.00364  -0.0021  0.0334  1.0000  -2.7613   0.0000   0.0000   0.0000   0.2503
   4.800   0.5418   0.01065   0.00375  -0.0018  0.0312  1.0000  -2.8552   0.0000   0.0000   0.0000   0.2498
   4.900   0.5517   0.01077   0.00387  -0.0016  0.0295  1.0000  -2.9498   0.0000   0.0000   0.0000   0.2492
   5.000   0.5616   0.01089   0.00399  -0.0014  0.0279  1.0000  -3.0457   0.0000   0.0000   0.0000   0.2487
   5.100   0.5715   0.01103   0.00413  -0.0011  0.0266  1.0000  -3.1420   0.0000   0.0000   0.0000   0.2481
   5.200   0.5814   0.01115   0.00428  -0.0009  0.0255  1.0000  -3.2386   0.0000   0.0000   0.0000   0.2476
   5.300   0.5914   0.01128   0.00441  -0.0007  0.0243  1.0000  -3.3368   0.0000   0.0000   0.0000   0.2471
   5.400   0.6013   0.01142   0.00455  -0.0004  0.0232  1.0000  -3.4366   0.0000   0.0000   0.0000   0.2467
   5.500   0.6112   0.01159   0.00471  -0.0002  0.0222  1.0000  -3.5363   0.0000   0.0000   0.0000   0.2462
   5.600   0.6212   0.01171   0.00486   0.0000  0.0213  1.0000  -3.6373   0.0000   0.0000   0.0000   0.2458
   5.700   0.6312   0.01184   0.00501   0.0002  0.0203  1.0000  -3.7401   0.0000   0.0000   0.0000   0.2454
   5.800   0.6412   0.01199   0.00516   0.0004  0.0195  1.0000  -3.8447   0.0000   0.0000   0.0000   0.2450
   5.900   0.6511   0.01217   0.00533   0.0006  0.0187  1.0000  -3.9486   0.0000   0.0000   0.0000   0.2446
   6.000   0.6610   0.01234   0.00552   0.0009  0.0182  1.0000  -4.0505   0.0000   0.0000   0.0000   0.2442
   6.100   0.6710   0.01250   0.00571   0.0011  0.0176  1.0000  -4.1538   0.0000   0.0000   0.0000   0.2438
   6.200   0.6810   0.01266   0.00590   0.0013  0.0171  1.0000  -4.2580   0.0000   0.0000   0.0000   0.2434
   6.300   0.6909   0.01283   0.00608   0.0015  0.0165  1.0000  -4.3643   0.0000   0.0000   0.0000   0.2431
   6.400   0.7009   0.01300   0.00627   0.0017  0.0161  1.0000  -4.4859   0.0000   0.0000   0.0000   0.2427
   6.500   0.7107   0.01320   0.00647   0.0019  0.0156  1.0000  -4.6087   0.0000   0.0000   0.0000   0.2424
   6.600   0.7203   0.01344   0.00672   0.0021  0.0151  1.0000  -4.7292   0.0000   0.0000   0.0000   0.2420
   6.700   0.7302   0.01364   0.00695   0.0023  0.0147  1.0000  -4.8509   0.0000   0.0000   0.0000   0.2417
   6.800   0.7402   0.01382   0.00716   0.0025  0.0143  1.0000  -4.9752   0.0000   0.0000   0.0000   0.2414
   6.900   0.7501   0.01400   0.00737   0.0027  0.0139  1.0000  -5.1015   0.0000   0.0000   0.0000   0.2411
   7.000   0.7600   0.01419   0.00759   0.0029  0.0134  1.0000  -5.2306   0.0000   0.0000   0.0000   0.2408
   7.100   0.7699   0.01437   0.00779   0.0031  0.0130  1.0000  -5.3620   0.0000   0.0000   0.0000   0.2405
   7.200   0.7798   0.01457   0.00801   0.0033  0.0127  1.0000  -5.4946   0.0000   0.0000   0.0000   0.2402
   7.300   0.7895   0.01479   0.00825   0.0035  0.0124  1.0000  -5.6259   0.0000   0.0000   0.0000   0.2399
   7.400   0.7989   0.01507   0.00854   0.0037  0.0121  1.0000  -5.7537   0.0000   0.0000   0.0000   0.2396
   7.500   0.8082   0.01538   0.00888   0.0040  0.0118  1.0000  -5.8767   0.0000   0.0000   0.0000   0.2392
   7.600   0.8179   0.01563   0.00917   0.0042  0.0117  1.0000  -6.0040   0.0000   0.0000   0.0000   0.2389
   7.700   0.8275   0.01589   0.00947   0.0044  0.0114  1.0000  -6.1310   0.0000   0.0000   0.0000   0.2386
   7.800   0.8370   0.01616   0.00979   0.0047  0.0112  1.0000  -6.2580   0.0000   0.0000   0.0000   0.2383
   7.900   0.8465   0.01644   0.01012   0.0049  0.0110  1.0000  -6.3858   0.0000   0.0000   0.0000   0.2379
   8.000   0.8559   0.01673   0.01045   0.0051  0.0108  1.0000  -6.5146   0.0000   0.0000   0.0000   0.2376
   8.100   0.8653   0.01702   0.01078   0.0054  0.0106  1.0000  -6.6448   0.0000   0.0000   0.0000   0.2373
   8.200   0.8746   0.01731   0.01111   0.0056  0.0104  1.0000  -6.7766   0.0000   0.0000   0.0000   0.2370
   8.300   0.8840   0.01760   0.01144   0.0058  0.0102  1.0000  -6.9103   0.0000   0.0000   0.0000   0.2367
   8.400   0.8933   0.01790   0.01177   0.0061  0.0100  1.0000  -7.0457   0.0000   0.0000   0.0000   0.2364
   8.500   0.9025   0.01819   0.01210   0.0063  0.0098  1.0000  -7.1834   0.0000   0.0000   0.0000   0.2361
   8.600   0.9118   0.01849   0.01243   0.0065  0.0097  1.0000  -7.3233   0.0000   0.0000   0.0000   0.2358
   8.700   0.9208   0.01882   0.01279   0.0068  0.0095  1.0000  -7.4629   0.0000   0.0000   0.0000   0.2355
   8.800   0.9294   0.01922   0.01323   0.0070  0.0093  1.0000  -7.5961   0.0000   0.0000   0.0000   0.2352
   8.900   0.9375   0.01972   0.01378   0.0074  0.0091  1.0000  -7.7166   0.0000   0.0000   0.0000   0.2348
   9.000   0.9466   0.02006   0.01419   0.0076  0.0090  1.0000  -7.8496   0.0000   0.0000   0.0000   0.2345
   9.100   0.9555   0.02042   0.01463   0.0079  0.0088  1.0000  -7.9808   0.0000   0.0000   0.0000   0.2342
   9.200   0.9643   0.02081   0.01509   0.0082  0.0087  1.0000  -8.1110   0.0000   0.0000   0.0000   0.2339
   9.300   0.9729   0.02122   0.01557   0.0085  0.0085  1.0000  -8.2408   0.0000   0.0000   0.0000   0.2335
   9.400   0.9813   0.02164   0.01606   0.0087  0.0083  1.0000  -8.3701   0.0000   0.0000   0.0000   0.2332
   9.500   0.9897   0.02208   0.01658   0.0091  0.0082  1.0000  -8.4979   0.0000   0.0000   0.0000   0.2328
   9.600   0.9978   0.02255   0.01712   0.0094  0.0080  1.0000  -8.6230   0.0000   0.0000   0.0000   0.2325
   9.700   1.0058   0.02304   0.01768   0.0097  0.0079  1.0000  -8.7484   0.0000   0.0000   0.0000   0.2321
   9.800   1.0137   0.02352   0.01824   0.0100  0.0078  1.0000  -8.8748   0.0000   0.0000   0.0000   0.2318
   9.900   1.0215   0.02401   0.01880   0.0103  0.0077  1.0000  -9.0024   0.0000   0.0000   0.0000   0.2314
  10.000   1.0292   0.02450   0.01936   0.0107  0.0076  1.0000  -9.1313   0.0000   0.0000   0.0000   0.2311
  10.100   1.0368   0.02500   0.01992   0.0110  0.0075  1.0000  -9.2618   0.0000   0.0000   0.0000   0.2307
  10.200   1.0443   0.02549   0.02049   0.0113  0.0074  1.0000  -9.4092   0.0000   0.0000   0.0000   0.2303
  10.300   1.0517   0.02600   0.02105   0.0116  0.0073  1.0000  -9.5570   0.0000   0.0000   0.0000   0.2300
  10.400   1.0588   0.02651   0.02163   0.0119  0.0072  1.0000  -9.7045   0.0000   0.0000   0.0000   0.2296
  10.500   1.0658   0.02705   0.02223   0.0123  0.0072  1.0000  -9.8508   0.0000   0.0000   0.0000   0.2293
  10.600   1.0724   0.02761   0.02286   0.0126  0.0071  1.0000  -9.9942   0.0000   0.0000   0.0000   0.2289
  10.700   1.0787   0.02822   0.02354   0.0130  0.0070  1.0000  -10.1326   0.0000   0.0000   0.0000   0.2285
  10.800   1.0843   0.02891   0.02431   0.0134  0.0070  1.0000  -10.2609   0.0000   0.0000   0.0000   0.2280
  10.900   1.0890   0.02971   0.02520   0.0139  0.0069  1.0000  -10.3755   0.0000   0.0000   0.0000   0.2275
  11.000   1.0926   0.03066   0.02625   0.0144  0.0068  1.0000  -10.4701   0.0000   0.0000   0.0000   0.2270
  11.100   1.0945   0.03182   0.02752   0.0150  0.0067  1.0000  -10.5365   0.0000   0.0000   0.0000   0.2263
  11.200   1.0978   0.03277   0.02859   0.0155  0.0067  1.0000  -10.6236   0.0000   0.0000   0.0000   0.2258
  11.300   1.1002   0.03379   0.02975   0.0161  0.0067  1.0000  -10.6992   0.0000   0.0000   0.0000   0.2252
  11.400   1.1017   0.03490   0.03098   0.0166  0.0066  1.0000  -10.7625   0.0000   0.0000   0.0000   0.2246
  11.500   1.1021   0.03608   0.03230   0.0172  0.0066  1.0000  -10.8124   0.0000   0.0000   0.0000   0.2240
  11.600   1.1013   0.03735   0.03370   0.0178  0.0066  1.0000  -10.8479   0.0000   0.0000   0.0000   0.2233
  11.700   1.0991   0.03868   0.03516   0.0184  0.0065  1.0000  -10.8673   0.0000   0.0000   0.0000   0.2226
  11.800   1.0947   0.03999   0.03658   0.0193  0.0065  1.0000  -10.8681   0.0000   0.0000   0.0000   0.2216
  11.900   1.0892   0.04140   0.03810   0.0200  0.0065  1.0000  -10.8558   0.0000   0.0000   0.0000   0.2208
  12.000   1.0828   0.04298   0.03978   0.0203  0.0065  1.0000  -10.8310   0.0000   0.0000   0.0000   0.2202
  12.100   1.0758   0.04477   0.04168   0.0200  0.0065  1.0000  -10.7935   0.0000   0.0000   0.0000   0.2202
  12.200   1.0683   0.04686   0.04387   0.0192  0.0065  1.0000  -10.7421   0.0000   0.0000   0.0000   0.2207
  12.300   1.0603   0.04932   0.04643   0.0176  0.0065  1.0000  -10.6749   0.0000   0.0000   0.0000   0.2219
  12.400   1.0518   0.05228   0.04949   0.0151  0.0065  1.0000  -10.5880   0.0000   0.0000   0.0000   0.2239
  12.500   1.0429   0.05590   0.05321   0.0116  0.0065  1.0000  -10.4750   0.0000   0.0000   0.0000   0.2269
  12.600   1.0332   0.06034   0.05774   0.0072  0.0065  1.0000  -10.3254   0.0000   0.0000   0.0000   0.2309
  12.700   1.0221   0.06566   0.06315   0.0023  0.0066  1.0000  -10.1263   0.0000   0.0000   0.0000   0.2355
  12.800   1.0086   0.07170   0.06926  -0.0026  0.0066  1.0000  -9.8687   0.0000   0.0000   0.0000   0.2402
  12.900   0.9924   0.07804   0.07566  -0.0069  0.0067  1.0000  -9.5596   0.0000   0.0000   0.0000   0.2446
  13.000   0.9738   0.08449   0.08214  -0.0107  0.0067  1.0000  -9.2077   0.0000   0.0000   0.0000   0.2486
  13.100   0.7582   0.14164   0.13931  -0.0367  0.0071  1.0000  -3.8374   0.0000   0.0000   0.0000   0.2887
  13.200   0.7577   0.14377   0.14143  -0.0376  0.0071  1.0000  -3.7973   0.0000   0.0000   0.0000   0.2899
  13.300   0.7575   0.14586   0.14353  -0.0385  0.0070  1.0000  -3.7608   0.0000   0.0000   0.0000   0.2910
  13.400   0.7576   0.14790   0.14556  -0.0393  0.0070  1.0000  -3.7282   0.0000   0.0000   0.0000   0.2920
  13.500   0.7577   0.14988   0.14754  -0.0402  0.0070  1.0000  -3.6983   0.0000   0.0000   0.0000   0.2930
  13.600   0.7580   0.15184   0.14949  -0.0410  0.0069  1.0000  -3.6701   0.0000   0.0000   0.0000   0.2940
  13.700   0.7583   0.15378   0.15143  -0.0418  0.0069  1.0000  -3.6427   0.0000   0.0000   0.0000   0.2950
  13.800   0.7588   0.15571   0.15336  -0.0426  0.0069  1.0000  -3.6149   0.0000   0.0000   0.0000   0.2960
  13.900   0.7593   0.15764   0.15529  -0.0434  0.0069  1.0000  -3.5857   0.0000   0.0000   0.0000   0.2969
  14.000   0.7598   0.15959   0.15724  -0.0443  0.0068  1.0000  -3.5538   0.0000   0.0000   0.0000   0.2979
  14.100   0.7604   0.16157   0.15921  -0.0451  0.0068  1.0000  -3.5181   0.0000   0.0000   0.0000   0.2988
  14.200   0.7610   0.16357   0.16121  -0.0459  0.0068  1.0000  -3.4780   0.0000   0.0000   0.0000   0.2998
  14.300   0.7617   0.16559   0.16323  -0.0468  0.0068  1.0000  -3.4332   0.0000   0.0000   0.0000   0.3008
  14.400   0.7624   0.16764   0.16527  -0.0476  0.0068  1.0000  -3.3842   0.0000   0.0000   0.0000   0.3018
  14.500   0.7632   0.16972   0.16735  -0.0484  0.0068  1.0000  -3.3295   0.0000   0.0000   0.0000   0.3028
  14.600   0.7644   0.17164   0.16927  -0.0493  0.0068  1.0000  -3.2914   0.0000   0.0000   0.0000   0.3037
  14.700   0.7657   0.17339   0.17101  -0.0500  0.0068  1.0000  -3.2733   0.0000   0.0000   0.0000   0.3045
  14.800   0.7668   0.17526   0.17288  -0.0509  0.0067  1.0000  -3.2459   0.0000   0.0000   0.0000   0.3054
  14.900   0.7672   0.17789   0.17551  -0.0519  0.0066  1.0000  -3.1220   0.0000   0.0000   0.0000   0.3067
  15.000   0.7669   0.18092   0.17853  -0.0532  0.0065  1.0000  -2.9536   0.0000   0.0000   0.0000   0.3084


