xflr5 v6.14

 Calculated polar for: NACA 4510

 1 1 Reynolds number fixed          Mach number fixed         

 xtrf =   1.000 (top)        1.000 (bottom)
 Mach =   0.040     Re =     0.200 e 6     Ncrit =   9.000

  alpha     CL        CD       CDp       Cm    Top Xtr Bot Xtr   Cpmin    Chinge    XCp    
 ------- -------- --------- --------- -------- ------- ------- -------- --------- ---------
  -3.000   0.1030   0.01589   0.00845  -0.1160  0.9276  0.1531  -1.4836   0.0000   1.3884
  -2.950   0.1111   0.01577   0.00836  -0.1165  0.9271  0.1600  -1.4518   0.0000   1.3099
  -2.900   0.1193   0.01566   0.00831  -0.1171  0.9267  0.1674  -1.4186   0.0000   1.2420
  -2.850   0.1276   0.01561   0.00823  -0.1176  0.9263  0.1753  -1.3858   0.0000   1.1814
  -2.800   0.1359   0.01547   0.00817  -0.1182  0.9259  0.1836  -1.3530   0.0000   1.1288
  -2.750   0.1444   0.01539   0.00811  -0.1188  0.9255  0.1924  -1.3197   0.0000   1.0814
  -2.700   0.1529   0.01529   0.00803  -0.1194  0.9252  0.2013  -1.2869   0.0000   1.0390
  -2.650   0.1614   0.01518   0.00798  -0.1201  0.9248  0.2106  -1.2536   0.0000   1.0013
  -2.600   0.1699   0.01512   0.00791  -0.1207  0.9245  0.2201  -1.2207   0.0000   0.9667
  -2.550   0.1783   0.01500   0.00787  -0.1213  0.9242  0.2299  -1.1878   0.0000   0.9363
  -2.500   0.1867   0.01493   0.00781  -0.1218  0.9238  0.2404  -1.1554   0.0000   0.9084
  -2.400   0.1857   0.01498   0.00791  -0.1195  0.9171  0.2491  -1.1324   0.0000   0.8990
  -2.350   0.1913   0.01493   0.00789  -0.1195  0.9156  0.2582  -1.1065   0.0000   0.8801
  -2.300   0.1976   0.01489   0.00786  -0.1197  0.9144  0.2675  -1.0793   0.0000   0.8608
  -2.250   0.2041   0.01480   0.00784  -0.1199  0.9134  0.2773  -1.0513   0.0000   0.8422
  -2.200   0.2110   0.01475   0.00780  -0.1202  0.9124  0.2878  -1.0228   0.0000   0.8240
  -2.150   0.2181   0.01467   0.00777  -0.1205  0.9115  0.2978  -0.9952   0.0000   0.8068
  -2.100   0.2253   0.01460   0.00773  -0.1208  0.9107  0.3088  -0.9715   0.0000   0.7903
  -2.050   0.2326   0.01453   0.00769  -0.1212  0.9099  0.3194  -0.9477   0.0000   0.7747
  -2.000   0.2399   0.01444   0.00765  -0.1215  0.9092  0.3308  -0.9240   0.0000   0.7601
  -1.900   0.2547   0.01428   0.00756  -0.1223  0.9078  0.3534  -0.8769   0.0000   0.7331
  -1.850   0.2622   0.01421   0.00751  -0.1226  0.9071  0.3655  -0.8535   0.0000   0.7205
  -1.800   0.2696   0.01412   0.00747  -0.1230  0.9065  0.3769  -0.8306   0.0000   0.7088
  -1.750   0.2772   0.01404   0.00740  -0.1233  0.9059  0.3894  -0.8089   0.0000   0.6975
  -1.700   0.2847   0.01395   0.00735  -0.1237  0.9053  0.4012  -0.7856   0.0000   0.6869
  -1.650   0.2921   0.01386   0.00730  -0.1240  0.9047  0.4142  -0.7623   0.0000   0.6768
  -1.600   0.2996   0.01378   0.00725  -0.1244  0.9042  0.4267  -0.7392   0.0000   0.6672
  -1.550   0.3071   0.01369   0.00721  -0.1247  0.9036  0.4399  -0.7163   0.0000   0.6581
  -1.500   0.3146   0.01361   0.00716  -0.1251  0.9031  0.4529  -0.6934   0.0000   0.6494
  -1.450   0.3220   0.01351   0.00712  -0.1254  0.9026  0.4664  -0.6709   0.0000   0.6412
  -1.400   0.3294   0.01344   0.00708  -0.1257  0.9021  0.4802  -0.6484   0.0000   0.6332
  -1.350   0.3367   0.01334   0.00704  -0.1260  0.9016  0.4944  -0.6263   0.0000   0.6258
  -1.300   0.3440   0.01326   0.00700  -0.1263  0.9011  0.5092  -0.6043   0.0000   0.6186
  -1.250   0.3463   0.01327   0.00706  -0.1257  0.8987  0.5198  -0.5929   0.0000   0.6142
  -1.200   0.3475   0.01331   0.00714  -0.1249  0.8954  0.5302  -0.5836   0.0000   0.6105
  -1.150   0.3517   0.01328   0.00715  -0.1246  0.8934  0.5430  -0.5700   0.0000   0.6053
  -1.100   0.3567   0.01322   0.00715  -0.1244  0.8918  0.5580  -0.5552   0.0000   0.5999
  -1.050   0.3622   0.01315   0.00713  -0.1244  0.8904  0.5732  -0.5438   0.0000   0.5943
  -1.000   0.3680   0.01307   0.00710  -0.1243  0.8891  0.5906  -0.5473   0.0000   0.5887
  -0.950   0.3739   0.01297   0.00708  -0.1243  0.8880  0.6085  -0.5510   0.0000   0.5833
  -0.900   0.3799   0.01287   0.00704  -0.1243  0.8869  0.6283  -0.5549   0.0000   0.5779
  -0.850   0.3859   0.01275   0.00701  -0.1243  0.8860  0.6503  -0.5587   0.0000   0.5727
  -0.800   0.3917   0.01263   0.00697  -0.1242  0.8850  0.6737  -0.5625   0.0000   0.5677
  -0.750   0.3973   0.01250   0.00693  -0.1241  0.8841  0.6998  -0.5663   0.0000   0.5627
  -0.700   0.4026   0.01236   0.00689  -0.1238  0.8833  0.7292  -0.5699   0.0000   0.5579
  -0.650   0.4074   0.01221   0.00685  -0.1234  0.8824  0.7640  -0.5733   0.0000   0.5532
  -0.600   0.4117   0.01204   0.00681  -0.1228  0.8816  0.8076  -0.5765   0.0000   0.5485
  -0.500   0.4315   0.01169   0.00663  -0.1240  0.8807  1.0000  -0.5882   0.0000   0.5374
  -0.450   0.4387   0.01165   0.00656  -0.1242  0.8799  1.0000  -0.5927   0.0000   0.5332
  -0.400   0.4461   0.01161   0.00649  -0.1245  0.8792  1.0000  -0.5972   0.0000   0.5291
  -0.350   0.4535   0.01157   0.00643  -0.1248  0.8785  1.0000  -0.6020   0.0000   0.5251
  -0.300   0.4609   0.01153   0.00637  -0.1251  0.8778  1.0000  -0.6068   0.0000   0.5213
  -0.250   0.4682   0.01150   0.00631  -0.1254  0.8771  1.0000  -0.6116   0.0000   0.5176
  -0.200   0.4732   0.01152   0.00631  -0.1253  0.8755  1.0000  -0.6150   0.0000   0.5144
  -0.150   0.4750   0.01161   0.00639  -0.1246  0.8723  1.0000  -0.6167   0.0000   0.5119
  -0.100   0.4790   0.01164   0.00641  -0.1243  0.8699  1.0000  -0.6196   0.0000   0.5090
  -0.050   0.4839   0.01165   0.00641  -0.1241  0.8680  1.0000  -0.6230   0.0000   0.5060
   0.000   0.4894   0.01165   0.00639  -0.1241  0.8663  1.0000  -0.6268   0.0000   0.5030
   0.050   0.4953   0.01163   0.00636  -0.1241  0.8647  1.0000  -0.6308   0.0000   0.4999
   0.100   0.5013   0.01161   0.00632  -0.1241  0.8633  1.0000  -0.6349   0.0000   0.4969
   0.150   0.5075   0.01159   0.00628  -0.1242  0.8620  1.0000  -0.6391   0.0000   0.4940
   0.200   0.5138   0.01156   0.00623  -0.1243  0.8608  1.0000  -0.6436   0.0000   0.4911
   0.250   0.5203   0.01153   0.00618  -0.1244  0.8596  1.0000  -0.6483   0.0000   0.4882
   0.300   0.5269   0.01149   0.00613  -0.1245  0.8585  1.0000  -0.6530   0.0000   0.4854
   0.350   0.5336   0.01145   0.00607  -0.1247  0.8575  1.0000  -0.6578   0.0000   0.4826
   0.400   0.5404   0.01142   0.00602  -0.1248  0.8565  1.0000  -0.6626   0.0000   0.4799
   0.450   0.5473   0.01138   0.00596  -0.1250  0.8555  1.0000  -0.6675   0.0000   0.4773
   0.500   0.5542   0.01134   0.00590  -0.1252  0.8545  1.0000  -0.6724   0.0000   0.4747
   0.550   0.5611   0.01130   0.00585  -0.1254  0.8536  1.0000  -0.6773   0.0000   0.4722
   0.600   0.5680   0.01127   0.00580  -0.1255  0.8527  1.0000  -0.6823   0.0000   0.4698
   0.650   0.5749   0.01124   0.00575  -0.1257  0.8517  1.0000  -0.6874   0.0000   0.4674
   0.700   0.5795   0.01127   0.00578  -0.1255  0.8499  1.0000  -0.6912   0.0000   0.4652
   0.750   0.5827   0.01133   0.00584  -0.1251  0.8472  1.0000  -0.6942   0.0000   0.4632
   0.800   0.5870   0.01136   0.00587  -0.1248  0.8448  1.0000  -0.6978   0.0000   0.4612
   0.850   0.5918   0.01138   0.00587  -0.1246  0.8427  1.0000  -0.7018   0.0000   0.4591
   0.900   0.5970   0.01138   0.00587  -0.1245  0.8408  1.0000  -0.7060   0.0000   0.4570
   0.950   0.6026   0.01137   0.00585  -0.1245  0.8390  1.0000  -0.7105   0.0000   0.4550
   1.000   0.6085   0.01136   0.00582  -0.1245  0.8374  1.0000  -0.7151   0.0000   0.4529
   1.050   0.6145   0.01133   0.00579  -0.1245  0.8359  1.0000  -0.7199   0.0000   0.4509
   1.100   0.6207   0.01131   0.00575  -0.1245  0.8344  1.0000  -0.7250   0.0000   0.4489
   1.150   0.6270   0.01128   0.00571  -0.1246  0.8330  1.0000  -0.7302   0.0000   0.4469
   1.200   0.6334   0.01124   0.00566  -0.1247  0.8317  1.0000  -0.7356   0.0000   0.4450
   1.250   0.6399   0.01121   0.00562  -0.1248  0.8304  1.0000  -0.7409   0.0000   0.4431
   1.300   0.6464   0.01118   0.00557  -0.1249  0.8292  1.0000  -0.7464   0.0000   0.4412
   1.350   0.6530   0.01115   0.00553  -0.1250  0.8280  1.0000  -0.7518   0.0000   0.4394
   1.400   0.6596   0.01113   0.00549  -0.1251  0.8268  1.0000  -0.7572   0.0000   0.4376
   1.450   0.6662   0.01111   0.00546  -0.1252  0.8256  1.0000  -0.7629   0.0000   0.4358
   1.500   0.6715   0.01113   0.00547  -0.1251  0.8238  1.0000  -0.7679   0.0000   0.4342
   1.550   0.6752   0.01118   0.00553  -0.1248  0.8213  1.0000  -0.7718   0.0000   0.4326
   1.600   0.6796   0.01121   0.00556  -0.1245  0.8188  1.0000  -0.7762   0.0000   0.4310
   1.650   0.6845   0.01123   0.00558  -0.1244  0.8165  1.0000  -0.7809   0.0000   0.4294
   1.700   0.6897   0.01123   0.00558  -0.1242  0.8144  1.0000  -0.7858   0.0000   0.4278
   1.750   0.6952   0.01123   0.00561  -0.1242  0.8123  1.0000  -0.7910   0.0000   0.4262
   1.800   0.7009   0.01122   0.00559  -0.1241  0.8104  1.0000  -0.7967   0.0000   0.4247
   1.850   0.7068   0.01120   0.00556  -0.1241  0.8086  1.0000  -0.8025   0.0000   0.4231
   1.900   0.7128   0.01118   0.00553  -0.1241  0.8069  1.0000  -0.8084   0.0000   0.4216
   1.950   0.7189   0.01116   0.00550  -0.1241  0.8053  1.0000  -0.8144   0.0000   0.4201
   2.000   0.7251   0.01114   0.00547  -0.1242  0.8038  1.0000  -0.8205   0.0000   0.4186
   2.050   0.7314   0.01112   0.00544  -0.1242  0.8023  1.0000  -0.8271   0.0000   0.4172
   2.100   0.7377   0.01110   0.00540  -0.1243  0.8008  1.0000  -0.8337   0.0000   0.4158
   2.150   0.7442   0.01108   0.00537  -0.1244  0.7993  1.0000  -0.8404   0.0000   0.4144
   2.200   0.7508   0.01108   0.00535  -0.1245  0.7979  1.0000  -0.8474   0.0000   0.4130
   2.250   0.7549   0.01112   0.00540  -0.1242  0.7953  1.0000  -0.8528   0.0000   0.4117
   2.300   0.7592   0.01115   0.00545  -0.1240  0.7927  1.0000  -0.8583   0.0000   0.4104
   2.350   0.7639   0.01118   0.00548  -0.1238  0.7902  1.0000  -0.8645   0.0000   0.4091
   2.400   0.7690   0.01119   0.00549  -0.1236  0.7878  1.0000  -0.8711   0.0000   0.4078
   2.450   0.7743   0.01120   0.00550  -0.1235  0.7855  1.0000  -0.8783   0.0000   0.4065
   2.500   0.7798   0.01119   0.00549  -0.1235  0.7833  1.0000  -0.8860   0.0000   0.4052
   2.550   0.7855   0.01119   0.00548  -0.1234  0.7812  1.0000  -0.8949   0.0000   0.4040
   2.600   0.7913   0.01117   0.00546  -0.1234  0.7792  1.0000  -0.9056   0.0000   0.4027
   2.650   0.7973   0.01116   0.00543  -0.1234  0.7773  1.0000  -0.9177   0.0000   0.4015
   2.700   0.8033   0.01115   0.00541  -0.1234  0.7754  1.0000  -0.9310   0.0000   0.4003
   2.750   0.8095   0.01114   0.00538  -0.1234  0.7736  1.0000  -0.9450   0.0000   0.3991
   2.800   0.8159   0.01113   0.00536  -0.1235  0.7719  1.0000  -0.9607   0.0000   0.3979
   2.850   0.8224   0.01114   0.00534  -0.1236  0.7702  1.0000  -0.9766   0.0000   0.3968
   2.900   0.8268   0.01117   0.00539  -0.1233  0.7676  1.0000  -0.9895   0.0000   0.3957
   2.950   0.8312   0.01120   0.00544  -0.1231  0.7648  1.0000  -1.0032   0.0000   0.3946
   3.000   0.8359   0.01122   0.00547  -0.1229  0.7621  1.0000  -1.0187   0.0000   0.3934
   3.050   0.8409   0.01124   0.00549  -0.1227  0.7594  1.0000  -1.0348   0.0000   0.3923
   3.100   0.8462   0.01125   0.00550  -0.1226  0.7568  1.0000  -1.0513   0.0000   0.3912
   3.150   0.8516   0.01125   0.00550  -0.1225  0.7543  1.0000  -1.0683   0.0000   0.3902
   3.200   0.8572   0.01125   0.00549  -0.1225  0.7519  1.0000  -1.0855   0.0000   0.3891
   3.250   0.8629   0.01124   0.00548  -0.1224  0.7497  1.0000  -1.1030   0.0000   0.3880
   3.300   0.8688   0.01124   0.00546  -0.1224  0.7475  1.0000  -1.1217   0.0000   0.3870
   3.350   0.8749   0.01123   0.00544  -0.1224  0.7454  1.0000  -1.1431   0.0000   0.3860
   3.400   0.8812   0.01124   0.00542  -0.1224  0.7433  1.0000  -1.1650   0.0000   0.3850
   3.450   0.8872   0.01126   0.00543  -0.1224  0.7410  1.0000  -1.1863   0.0000   0.3840
   3.500   0.8913   0.01129   0.00548  -0.1222  0.7380  1.0000  -1.2042   0.0000   0.3830
   3.550   0.8959   0.01131   0.00558  -0.1219  0.7350  1.0000  -1.2237   0.0000   0.3820
   3.600   0.9007   0.01133   0.00561  -0.1218  0.7319  1.0000  -1.2432   0.0000   0.3810
   3.650   0.9057   0.01135   0.00563  -0.1216  0.7289  1.0000  -1.2632   0.0000   0.3800
   3.700   0.9110   0.01135   0.00564  -0.1215  0.7260  1.0000  -1.2836   0.0000   0.3791
   3.750   0.9164   0.01136   0.00563  -0.1213  0.7231  1.0000  -1.3044   0.0000   0.3781
   3.800   0.9220   0.01136   0.00562  -0.1213  0.7204  1.0000  -1.3258   0.0000   0.3772
   3.850   0.9279   0.01136   0.00560  -0.1212  0.7178  1.0000  -1.3478   0.0000   0.3762
   3.900   0.9340   0.01137   0.00558  -0.1212  0.7152  1.0000  -1.3703   0.0000   0.3753
   3.950   0.9400   0.01139   0.00558  -0.1212  0.7124  1.0000  -1.3961   0.0000   0.3744
   4.000   0.9441   0.01141   0.00564  -0.1209  0.7090  1.0000  -1.4182   0.0000   0.3735
   4.050   0.9486   0.01144   0.00568  -0.1207  0.7054  1.0000  -1.4411   0.0000   0.3726
   4.100   0.9533   0.01145   0.00570  -0.1205  0.7016  1.0000  -1.4649   0.0000   0.3717
   4.150   0.9582   0.01146   0.00571  -0.1203  0.6979  1.0000  -1.4893   0.0000   0.3708
   4.200   0.9634   0.01146   0.00571  -0.1201  0.6943  1.0000  -1.5147   0.0000   0.3699
   4.250   0.9689   0.01147   0.00568  -0.1200  0.6906  1.0000  -1.5409   0.0000   0.3690
   4.300   0.9746   0.01147   0.00566  -0.1199  0.6871  1.0000  -1.5679   0.0000   0.3681
   4.350   0.9805   0.01150   0.00564  -0.1198  0.6835  1.0000  -1.5956   0.0000   0.3673
   4.400   0.9845   0.01152   0.00569  -0.1195  0.6793  1.0000  -1.6183   0.0000   0.3664
   4.450   0.9888   0.01154   0.00573  -0.1192  0.6747  1.0000  -1.6420   0.0000   0.3655
   4.500   0.9935   0.01155   0.00575  -0.1190  0.6701  1.0000  -1.6666   0.0000   0.3646
   4.550   0.9984   0.01156   0.00575  -0.1187  0.6655  1.0000  -1.6923   0.0000   0.3638
   4.600   1.0036   0.01158   0.00573  -0.1186  0.6611  1.0000  -1.7187   0.0000   0.3629
   4.650   1.0090   0.01160   0.00571  -0.1184  0.6570  1.0000  -1.7458   0.0000   0.3621
   4.700   1.0141   0.01164   0.00573  -0.1183  0.6528  1.0000  -1.7721   0.0000   0.3613
   4.750   1.0183   0.01166   0.00578  -0.1180  0.6480  1.0000  -1.7961   0.0000   0.3605
   4.800   1.0228   0.01169   0.00582  -0.1177  0.6430  1.0000  -1.8210   0.0000   0.3596
   4.850   1.0275   0.01171   0.00584  -0.1175  0.6381  1.0000  -1.8467   0.0000   0.3588
   4.900   1.0324   0.01174   0.00584  -0.1173  0.6333  1.0000  -1.8744   0.0000   0.3580
   4.950   1.0375   0.01178   0.00584  -0.1171  0.6288  1.0000  -1.9066   0.0000   0.3572
   5.000   1.0426   0.01183   0.00585  -0.1169  0.6245  1.0000  -1.9392   0.0000   0.3565
   5.050   1.0469   0.01186   0.00591  -0.1166  0.6196  1.0000  -1.9690   0.0000   0.3557
   5.100   1.0513   0.01189   0.00596  -0.1164  0.6145  1.0000  -1.9995   0.0000   0.3549
   5.150   1.0559   0.01193   0.00599  -0.1161  0.6092  1.0000  -2.0306   0.0000   0.3541
   5.200   1.0606   0.01197   0.00601  -0.1159  0.6040  1.0000  -2.0623   0.0000   0.3534
   5.250   1.0654   0.01203   0.00602  -0.1157  0.5990  1.0000  -2.0946   0.0000   0.3526
   5.300   1.0701   0.01208   0.00605  -0.1155  0.5941  1.0000  -2.1268   0.0000   0.3519
   5.350   1.0744   0.01212   0.00617  -0.1152  0.5887  1.0000  -2.1534   0.0000   0.3511
   5.400   1.0788   0.01216   0.00622  -0.1149  0.5830  1.0000  -2.1824   0.0000   0.3504
   5.450   1.0833   0.01221   0.00626  -0.1147  0.5773  1.0000  -2.2131   0.0000   0.3496
   5.500   1.0877   0.01227   0.00628  -0.1144  0.5717  1.0000  -2.2445   0.0000   0.3489
   5.550   1.0923   0.01235   0.00631  -0.1141  0.5663  1.0000  -2.2765   0.0000   0.3482
   5.600   1.0966   0.01239   0.00638  -0.1139  0.5606  1.0000  -2.3077   0.0000   0.3475
   5.650   1.1009   0.01244   0.00643  -0.1136  0.5542  1.0000  -2.3390   0.0000   0.3467
   5.700   1.1051   0.01251   0.00648  -0.1133  0.5477  1.0000  -2.3704   0.0000   0.3460
   5.750   1.1093   0.01259   0.00651  -0.1130  0.5412  1.0000  -2.4018   0.0000   0.3453
   5.800   1.1134   0.01267   0.00656  -0.1127  0.5351  1.0000  -2.4334   0.0000   0.3446
   5.850   1.1177   0.01273   0.00663  -0.1124  0.5283  1.0000  -2.4652   0.0000   0.3439
   5.900   1.1218   0.01279   0.00668  -0.1121  0.5211  1.0000  -2.4968   0.0000   0.3432
   5.950   1.1256   0.01289   0.00674  -0.1117  0.5138  1.0000  -2.5278   0.0000   0.3424
   6.000   1.1294   0.01299   0.00679  -0.1113  0.5068  1.0000  -2.5588   0.0000   0.3417
   6.050   1.1336   0.01305   0.00686  -0.1110  0.4991  1.0000  -2.5907   0.0000   0.3410
   6.100   1.1373   0.01314   0.00692  -0.1107  0.4906  1.0000  -2.6217   0.0000   0.3403
   6.150   1.1407   0.01326   0.00699  -0.1102  0.4824  1.0000  -2.6517   0.0000   0.3396
   6.200   1.1445   0.01336   0.00706  -0.1099  0.4743  1.0000  -2.6828   0.0000   0.3389
   6.250   1.1482   0.01345   0.00713  -0.1095  0.4650  1.0000  -2.7139   0.0000   0.3382
   6.300   1.1514   0.01357   0.00721  -0.1090  0.4558  1.0000  -2.7436   0.0000   0.3375
   6.350   1.1547   0.01370   0.00728  -0.1086  0.4471  1.0000  -2.7735   0.0000   0.3368
   6.400   1.1584   0.01380   0.00737  -0.1082  0.4373  1.0000  -2.8045   0.0000   0.3361
   6.450   1.1614   0.01394   0.00746  -0.1078  0.4275  1.0000  -2.8335   0.0000   0.3354
   6.500   1.1645   0.01408   0.00755  -0.1073  0.4182  1.0000  -2.8630   0.0000   0.3347
   6.550   1.1678   0.01420   0.00764  -0.1069  0.4072  1.0000  -2.8930   0.0000   0.3340
   6.600   1.1701   0.01438   0.00775  -0.1063  0.3966  1.0000  -2.9202   0.0000   0.3332
   6.650   1.1733   0.01452   0.00785  -0.1059  0.3851  1.0000  -2.9498   0.0000   0.3326
   6.700   1.1756   0.01470   0.00796  -0.1053  0.3727  1.0000  -2.9768   0.0000   0.3318
   6.750   1.1781   0.01488   0.00808  -0.1047  0.3605  1.0000  -3.0043   0.0000   0.3311
   6.800   1.1802   0.01507   0.00820  -0.1042  0.3466  1.0000  -3.0306   0.0000   0.3304
   6.850   1.1823   0.01528   0.00834  -0.1036  0.3331  1.0000  -3.0567   0.0000   0.3297
   6.900   1.1839   0.01551   0.00848  -0.1029  0.3184  1.0000  -3.0811   0.0000   0.3289
   6.950   1.1858   0.01574   0.00863  -0.1023  0.3029  1.0000  -3.1065   0.0000   0.3282
   7.000   1.1869   0.01601   0.00879  -0.1016  0.2876  1.0000  -3.1293   0.0000   0.3275
   7.050   1.1883   0.01627   0.00896  -0.1009  0.2705  1.0000  -3.1528   0.0000   0.3267
   7.100   1.1895   0.01655   0.00914  -0.1002  0.2536  1.0000  -3.1755   0.0000   0.3260
   7.150   1.1903   0.01686   0.00934  -0.0995  0.2368  1.0000  -3.1969   0.0000   0.3253
   7.250   1.1918   0.01750   0.00975  -0.0980  0.2019  1.0000  -3.2387   0.0000   0.3238
   7.300   1.1926   0.01783   0.00997  -0.0973  0.1853  1.0000  -3.2593   0.0000   0.3231
   7.350   1.1933   0.01818   0.01020  -0.0965  0.1699  1.0000  -3.2794   0.0000   0.3224
   7.400   1.1937   0.01853   0.01045  -0.0958  0.1560  1.0000  -3.2986   0.0000   0.3217
   7.450   1.1949   0.01885   0.01068  -0.0951  0.1428  1.0000  -3.3197   0.0000   0.3210
   7.500   1.1959   0.01917   0.01092  -0.0944  0.1321  1.0000  -3.3398   0.0000   0.3202
   7.550   1.1969   0.01950   0.01116  -0.0937  0.1228  1.0000  -3.3601   0.0000   0.3195
   7.600   1.1984   0.01978   0.01145  -0.0931  0.1152  1.0000  -3.3834   0.0000   0.3189
   7.650   1.1998   0.02007   0.01168  -0.0924  0.1085  1.0000  -3.4056   0.0000   0.3182
   7.700   1.2001   0.02040   0.01195  -0.0916  0.1031  1.0000  -3.4229   0.0000   0.3174
   7.750   1.2022   0.02061   0.01216  -0.0910  0.0983  1.0000  -3.4456   0.0000   0.3167
   7.800   1.2038   0.02085   0.01237  -0.0904  0.0941  1.0000  -3.4670   0.0000   0.3160
   7.850   1.2047   0.02114   0.01261  -0.0897  0.0906  1.0000  -3.4865   0.0000   0.3153
   7.900   1.2046   0.02149   0.01292  -0.0888  0.0873  1.0000  -3.5007   0.0000   0.3145
   7.950   1.2073   0.02167   0.01312  -0.0883  0.0845  1.0000  -3.5246   0.0000   0.3139
   8.000   1.2097   0.02187   0.01333  -0.0877  0.0818  1.0000  -3.5546   0.0000   0.3132
   8.050   1.2117   0.02209   0.01355  -0.0872  0.0794  1.0000  -3.5835   0.0000   0.3126
   8.100   1.2132   0.02235   0.01379  -0.0866  0.0772  1.0000  -3.6106   0.0000   0.3119
   8.150   1.2140   0.02265   0.01406  -0.0858  0.0751  1.0000  -3.6347   0.0000   0.3112
   8.200   1.2136   0.02304   0.01442  -0.0849  0.0732  1.0000  -3.6517   0.0000   0.3104
   8.250   1.2157   0.02328   0.01467  -0.0844  0.0716  1.0000  -3.6793   0.0000   0.3098
   8.300   1.2186   0.02345   0.01487  -0.0840  0.0700  1.0000  -3.7121   0.0000   0.3092
   8.350   1.2213   0.02364   0.01507  -0.0835  0.0683  1.0000  -3.7440   0.0000   0.3086
   8.400   1.2237   0.02384   0.01529  -0.0830  0.0667  1.0000  -3.7755   0.0000   0.3080
   8.450   1.2260   0.02405   0.01550  -0.0826  0.0652  1.0000  -3.8072   0.0000   0.3074
   8.500   1.2279   0.02428   0.01573  -0.0820  0.0638  1.0000  -3.8379   0.0000   0.3068
   8.550   1.2293   0.02456   0.01598  -0.0815  0.0624  1.0000  -3.8659   0.0000   0.3062
   8.600   1.2299   0.02490   0.01631  -0.0808  0.0611  1.0000  -3.8888   0.0000   0.3056
   8.650   1.2293   0.02535   0.01674  -0.0799  0.0597  1.0000  -3.9043   0.0000   0.3048
   8.700   1.2312   0.02562   0.01701  -0.0794  0.0587  1.0000  -3.9321   0.0000   0.3042
   8.750   1.2346   0.02575   0.01718  -0.0790  0.0577  1.0000  -3.9688   0.0000   0.3037
   8.800   1.2376   0.02592   0.01737  -0.0787  0.0566  1.0000  -4.0035   0.0000   0.3032
   8.850   1.2403   0.02611   0.01758  -0.0783  0.0555  1.0000  -4.0371   0.0000   0.3027
   8.900   1.2429   0.02631   0.01780  -0.0779  0.0544  1.0000  -4.0699   0.0000   0.3021
   8.950   1.2452   0.02653   0.01803  -0.0774  0.0534  1.0000  -4.1019   0.0000   0.3016
   9.000   1.2474   0.02677   0.01827  -0.0769  0.0526  1.0000  -4.1330   0.0000   0.3010
   9.050   1.2494   0.02701   0.01852  -0.0765  0.0518  1.0000  -4.1637   0.0000   0.3005
   9.100   1.2514   0.02727   0.01878  -0.0760  0.0510  1.0000  -4.1941   0.0000   0.2999
   9.150   1.2531   0.02755   0.01905  -0.0755  0.0503  1.0000  -4.2234   0.0000   0.2994
   9.200   1.2545   0.02787   0.01937  -0.0750  0.0496  1.0000  -4.2503   0.0000   0.2988
   9.250   1.2554   0.02825   0.01973  -0.0744  0.0489  1.0000  -4.2738   0.0000   0.2982
   9.300   1.2559   0.02871   0.02018  -0.0737  0.0481  1.0000  -4.2932   0.0000   0.2976
   9.350   1.2562   0.02930   0.02076  -0.0730  0.0473  1.0000  -4.3068   0.0000   0.2970
   9.400   1.2589   0.02956   0.02103  -0.0726  0.0469  1.0000  -4.3370   0.0000   0.2965
   9.450   1.2619   0.02976   0.02126  -0.0722  0.0465  1.0000  -4.3703   0.0000   0.2960
   9.500   1.2648   0.02997   0.02151  -0.0719  0.0460  1.0000  -4.4029   0.0000   0.2955
   9.550   1.2676   0.03020   0.02176  -0.0715  0.0455  1.0000  -4.4348   0.0000   0.2950
   9.600   1.2704   0.03044   0.02203  -0.0711  0.0450  1.0000  -4.4664   0.0000   0.2945
   9.650   1.2731   0.03069   0.02230  -0.0707  0.0445  1.0000  -4.4976   0.0000   0.2940
   9.700   1.2759   0.03095   0.02258  -0.0704  0.0440  1.0000  -4.5288   0.0000   0.2935
   9.750   1.2786   0.03121   0.02286  -0.0700  0.0435  1.0000  -4.5599   0.0000   0.2930
   9.800   1.2813   0.03147   0.02315  -0.0696  0.0430  1.0000  -4.5911   0.0000   0.2926
   9.850   1.2840   0.03174   0.02343  -0.0692  0.0424  1.0000  -4.6225   0.0000   0.2921
   9.900   1.2867   0.03201   0.02371  -0.0689  0.0420  1.0000  -4.6540   0.0000   0.2916
   9.950   1.2894   0.03228   0.02400  -0.0685  0.0415  1.0000  -4.6858   0.0000   0.2911
  10.000   1.2920   0.03255   0.02428  -0.0681  0.0410  1.0000  -4.7178   0.0000   0.2907
  10.050   1.2947   0.03283   0.02457  -0.0678  0.0406  1.0000  -4.7499   0.0000   0.2902
  10.100   1.2973   0.03312   0.02485  -0.0674  0.0401  1.0000  -4.7821   0.0000   0.2898
  10.150   1.2999   0.03341   0.02515  -0.0671  0.0397  1.0000  -4.8145   0.0000   0.2893
  10.200   1.3027   0.03371   0.02550  -0.0667  0.0393  1.0000  -4.8514   0.0000   0.2889
  10.250   1.3054   0.03403   0.02582  -0.0664  0.0389  1.0000  -4.8846   0.0000   0.2884
  10.300   1.3083   0.03439   0.02618  -0.0661  0.0385  1.0000  -4.9172   0.0000   0.2880
  10.350   1.3116   0.03480   0.02658  -0.0658  0.0381  1.0000  -4.9492   0.0000   0.2876
  10.400   1.3158   0.03532   0.02711  -0.0656  0.0375  1.0000  -4.9804   0.0000   0.2872
  10.450   1.3244   0.03634   0.02812  -0.0659  0.0367  1.0000  -5.0119   0.0000   0.2871
  10.500   1.3316   0.03711   0.02893  -0.0661  0.0363  1.0000  -5.0420   0.0000   0.2869
  10.550   1.3340   0.03734   0.02920  -0.0657  0.0361  1.0000  -5.0716   0.0000   0.2864
  10.600   1.3364   0.03757   0.02947  -0.0653  0.0359  1.0000  -5.1011   0.0000   0.2860
  10.650   1.3388   0.03781   0.02976  -0.0649  0.0357  1.0000  -5.1306   0.0000   0.2855
  10.700   1.3412   0.03807   0.03005  -0.0645  0.0354  1.0000  -5.1602   0.0000   0.2850
  10.750   1.3436   0.03832   0.03035  -0.0641  0.0351  1.0000  -5.1898   0.0000   0.2846
  10.800   1.3459   0.03859   0.03065  -0.0637  0.0348  1.0000  -5.2194   0.0000   0.2841
  10.850   1.3482   0.03886   0.03096  -0.0633  0.0345  1.0000  -5.2492   0.0000   0.2837
  10.900   1.3505   0.03913   0.03128  -0.0629  0.0342  1.0000  -5.2792   0.0000   0.2833
  10.950   1.3527   0.03941   0.03159  -0.0625  0.0338  1.0000  -5.3094   0.0000   0.2828
  11.000   1.3549   0.03969   0.03190  -0.0621  0.0334  1.0000  -5.3399   0.0000   0.2824
  11.050   1.3570   0.03997   0.03222  -0.0618  0.0331  1.0000  -5.3708   0.0000   0.2820
  11.100   1.3591   0.04026   0.03253  -0.0614  0.0327  1.0000  -5.4021   0.0000   0.2815
  11.150   1.3611   0.04054   0.03284  -0.0610  0.0324  1.0000  -5.4337   0.0000   0.2811
  11.200   1.3632   0.04083   0.03314  -0.0606  0.0320  1.0000  -5.4658   0.0000   0.2807
  11.250   1.3650   0.04112   0.03346  -0.0603  0.0317  1.0000  -5.4971   0.0000   0.2803
  11.300   1.3668   0.04142   0.03379  -0.0599  0.0314  1.0000  -5.5277   0.0000   0.2799
  11.350   1.3686   0.04173   0.03413  -0.0595  0.0311  1.0000  -5.5582   0.0000   0.2795
  11.400   1.3705   0.04206   0.03448  -0.0591  0.0308  1.0000  -5.5885   0.0000   0.2791
  11.450   1.3726   0.04240   0.03485  -0.0588  0.0306  1.0000  -5.6183   0.0000   0.2787
  11.500   1.3748   0.04277   0.03524  -0.0584  0.0304  1.0000  -5.6472   0.0000   0.2783
  11.550   1.3769   0.04314   0.03565  -0.0581  0.0302  1.0000  -5.6759   0.0000   0.2779
  11.600   1.3790   0.04352   0.03605  -0.0578  0.0300  1.0000  -5.7045   0.0000   0.2775
  11.650   1.3811   0.04391   0.03646  -0.0574  0.0298  1.0000  -5.7332   0.0000   0.2771
  11.700   1.3831   0.04429   0.03688  -0.0571  0.0296  1.0000  -5.7617   0.0000   0.2767
  11.750   1.3851   0.04469   0.03730  -0.0567  0.0295  1.0000  -5.7902   0.0000   0.2763
  11.800   1.3871   0.04510   0.03773  -0.0564  0.0293  1.0000  -5.8185   0.0000   0.2760
  11.850   1.3890   0.04551   0.03817  -0.0561  0.0291  1.0000  -5.8464   0.0000   0.2756
  11.900   1.3909   0.04594   0.03862  -0.0557  0.0289  1.0000  -5.8741   0.0000   0.2752
  11.950   1.3928   0.04639   0.03910  -0.0554  0.0288  1.0000  -5.9012   0.0000   0.2749
  12.000   1.3947   0.04687   0.03960  -0.0551  0.0286  1.0000  -5.9277   0.0000   0.2745
  12.050   1.3966   0.04738   0.04014  -0.0548  0.0284  1.0000  -5.9532   0.0000   0.2742
  12.100   1.3986   0.04794   0.04073  -0.0545  0.0282  1.0000  -5.9771   0.0000   0.2738
  12.150   1.4005   0.04857   0.04139  -0.0542  0.0281  1.0000  -5.9983   0.0000   0.2735
  12.200   1.4024   0.04927   0.04213  -0.0539  0.0279  1.0000  -6.0161   0.0000   0.2731
  12.250   1.4040   0.05007   0.04298  -0.0536  0.0277  1.0000  -6.0291   0.0000   0.2728
  12.300   1.4052   0.05098   0.04395  -0.0533  0.0275  1.0000  -6.0359   0.0000   0.2725
  12.350   1.4058   0.05200   0.04504  -0.0529  0.0274  1.0000  -6.0359   0.0000   0.2721
  12.400   1.4056   0.05310   0.04623  -0.0525  0.0272  1.0000  -6.0293   0.0000   0.2718
  12.450   1.4047   0.05426   0.04747  -0.0520  0.0271  1.0000  -6.0173   0.0000   0.2714
  12.500   1.4029   0.05543   0.04873  -0.0515  0.0270  1.0000  -6.0016   0.0000   0.2710
  12.550   1.4007   0.05651   0.04987  -0.0509  0.0269  1.0000  -5.9868   0.0000   0.2706
  12.600   1.3991   0.05695   0.05036  -0.0503  0.0269  1.0000  -5.9955   0.0000   0.2701
  12.650   1.3976   0.05741   0.05087  -0.0498  0.0268  1.0000  -6.0035   0.0000   0.2697
  12.700   1.3960   0.05789   0.05140  -0.0492  0.0268  1.0000  -6.0107   0.0000   0.2693
  12.750   1.3943   0.05839   0.05196  -0.0487  0.0268  1.0000  -6.0170   0.0000   0.2688
  12.800   1.3925   0.05891   0.05254  -0.0482  0.0267  1.0000  -6.0223   0.0000   0.2684
  12.850   1.3907   0.05946   0.05314  -0.0476  0.0267  1.0000  -6.0267   0.0000   0.2680
  12.900   1.3888   0.06002   0.05375  -0.0472  0.0266  1.0000  -6.0303   0.0000   0.2676
  12.950   1.3868   0.06061   0.05439  -0.0467  0.0266  1.0000  -6.0332   0.0000   0.2672
  13.000   1.3848   0.06122   0.05505  -0.0462  0.0265  1.0000  -6.0352   0.0000   0.2669
  13.050   1.3827   0.06185   0.05574  -0.0458  0.0265  1.0000  -6.0362   0.0000   0.2665
  13.100   1.3805   0.06250   0.05649  -0.0453  0.0264  1.0000  -6.0353   0.0000   0.2662
  13.150   1.3782   0.06317   0.05721  -0.0449  0.0264  1.0000  -6.0345   0.0000   0.2659
  13.200   1.3758   0.06386   0.05795  -0.0445  0.0264  1.0000  -6.0331   0.0000   0.2655
  13.250   1.3733   0.06457   0.05871  -0.0441  0.0263  1.0000  -6.0308   0.0000   0.2652
  13.300   1.3707   0.06530   0.05950  -0.0438  0.0263  1.0000  -6.0276   0.0000   0.2649
  13.350   1.3680   0.06605   0.06030  -0.0434  0.0262  1.0000  -6.0237   0.0000   0.2647
  13.400   1.3652   0.06681   0.06112  -0.0431  0.0262  1.0000  -6.0190   0.0000   0.2644
  13.450   1.3623   0.06759   0.06195  -0.0428  0.0262  1.0000  -6.0136   0.0000   0.2642
  13.500   1.3592   0.06839   0.06280  -0.0425  0.0261  1.0000  -6.0073   0.0000   0.2639
  13.550   1.3560   0.06921   0.06368  -0.0422  0.0261  1.0000  -6.0002   0.0000   0.2637
  13.600   1.3528   0.07005   0.06457  -0.0420  0.0261  1.0000  -5.9926   0.0000   0.2635
  13.650   1.3495   0.07091   0.06548  -0.0417  0.0261  1.0000  -5.9844   0.0000   0.2633
  13.700   1.3461   0.07179   0.06642  -0.0415  0.0260  1.0000  -5.9753   0.0000   0.2632
  13.750   1.3426   0.07269   0.06738  -0.0414  0.0260  1.0000  -5.9656   0.0000   0.2630
  13.800   1.3390   0.07362   0.06835  -0.0412  0.0260  1.0000  -5.9553   0.0000   0.2629
  13.850   1.3354   0.07456   0.06935  -0.0411  0.0260  1.0000  -5.9445   0.0000   0.2628
  13.900   1.3317   0.07553   0.07037  -0.0410  0.0260  1.0000  -5.9329   0.0000   0.2627
  13.950   1.3278   0.07652   0.07141  -0.0409  0.0259  1.0000  -5.9207   0.0000   0.2627
  14.000   1.3239   0.07753   0.07247  -0.0409  0.0259  1.0000  -5.9079   0.0000   0.2627
  14.050   1.3200   0.07855   0.07354  -0.0409  0.0259  1.0000  -5.8947   0.0000   0.2627
  14.100   1.3159   0.07961   0.07465  -0.0409  0.0259  1.0000  -5.8807   0.0000   0.2627
  14.150   1.3118   0.08068   0.07577  -0.0410  0.0259  1.0000  -5.8661   0.0000   0.2627
  14.200   1.3076   0.08178   0.07692  -0.0411  0.0259  1.0000  -5.8510   0.0000   0.2628
  14.250   1.3034   0.08289   0.07808  -0.0412  0.0259  1.0000  -5.8354   0.0000   0.2629
  14.300   1.2990   0.08403   0.07926  -0.0413  0.0259  1.0000  -5.8191   0.0000   0.2630
  14.350   1.2946   0.08518   0.08046  -0.0415  0.0259  1.0000  -5.8022   0.0000   0.2632
  14.400   1.2901   0.08635   0.08168  -0.0417  0.0259  1.0000  -5.7848   0.0000   0.2634
  14.450   1.2856   0.08755   0.08292  -0.0419  0.0259  1.0000  -5.7669   0.0000   0.2636
  14.500   1.2810   0.08877   0.08420  -0.0422  0.0259  1.0000  -5.7482   0.0000   0.2638
  14.550   1.2763   0.09002   0.08549  -0.0425  0.0260  1.0000  -5.7290   0.0000   0.2641
  14.600   1.2717   0.09130   0.08681  -0.0429  0.0260  1.0000  -5.7093   0.0000   0.2644
  14.650   1.2669   0.09260   0.08816  -0.0433  0.0260  1.0000  -5.6888   0.0000   0.2648
  14.700   1.2621   0.09394   0.08954  -0.0437  0.0260  1.0000  -5.6676   0.0000   0.2651
  14.750   1.2573   0.09531   0.09095  -0.0442  0.0260  1.0000  -5.6459   0.0000   0.2656
  14.800   1.2525   0.09670   0.09239  -0.0447  0.0260  1.0000  -5.6235   0.0000   0.2660
  14.850   1.2476   0.09814   0.09387  -0.0453  0.0261  1.0000  -5.6002   0.0000   0.2665
  14.900   1.2427   0.09961   0.09538  -0.0459  0.0261  1.0000  -5.5761   0.0000   0.2671
  14.950   1.2377   0.10110   0.09692  -0.0465  0.0261  1.0000  -5.5514   0.0000   0.2676
  15.000   1.2326   0.10266   0.09848  -0.0472  0.0261  1.0000  -5.5255   0.0000   0.2683


