xflr5 v6.59

 Calculated polar for: NACA 0008

 1 1 Reynolds number fixed          Mach number fixed         

 xtrf =   1.000 (top)        1.000 (bottom)
 Mach =   0.050     Re =     0.130 e 6     Ncrit =   5.000

  alpha     CL        CD       CDp       Cm    Top Xtr Bot Xtr   Cpmin    Chinge    XCp    
 ------- -------- --------- --------- -------- ------- ------- -------- --------- ---------
  -3.000  -0.3686   0.01133   0.00369   0.0046  1.0000  0.4724  -1.4421   0.0000   0.0000   0.0000   0.2599
  -2.900  -0.3597   0.01114   0.00363   0.0051  1.0000  0.5025  -1.3848   0.0000   0.0000   0.0000   0.2615
  -2.800  -0.3508   0.01097   0.00358   0.0056  1.0000  0.5321  -1.3281   0.0000   0.0000   0.0000   0.2634
  -2.700  -0.3419   0.01081   0.00353   0.0061  1.0000  0.5610  -1.2718   0.0000   0.0000   0.0000   0.2653
  -2.600  -0.3330   0.01066   0.00349   0.0066  1.0000  0.5893  -1.2166   0.0000   0.0000   0.0000   0.2675
  -2.500  -0.3240   0.01052   0.00346   0.0072  1.0000  0.6170  -1.1671   0.0000   0.0000   0.0000   0.2698
  -2.400  -0.3150   0.01040   0.00341   0.0077  1.0000  0.6441  -1.1179   0.0000   0.0000   0.0000   0.2722
  -2.300  -0.3059   0.01028   0.00340   0.0083  1.0000  0.6701  -1.0691   0.0000   0.0000   0.0000   0.2749
  -2.200  -0.2968   0.01018   0.00339   0.0089  1.0000  0.6954  -1.0206   0.0000   0.0000   0.0000   0.2778
  -2.100  -0.2876   0.01010   0.00338   0.0095  1.0000  0.7200  -0.9724   0.0000   0.0000   0.0000   0.2809
  -2.000  -0.2782   0.01002   0.00338   0.0101  1.0000  0.7438  -0.9275   0.0000   0.0000   0.0000   0.2841
  -1.900  -0.2686   0.00997   0.00339   0.0107  1.0000  0.7664  -0.8842   0.0000   0.0000   0.0000   0.2876
  -1.800  -0.2588   0.00992   0.00339   0.0112  1.0000  0.7883  -0.8409   0.0000   0.0000   0.0000   0.2911
  -1.700  -0.2486   0.00989   0.00341   0.0116  1.0000  0.8092  -0.7974   0.0000   0.0000   0.0000   0.2947
  -1.600  -0.2382   0.00987   0.00343   0.0120  1.0000  0.8289  -0.7570   0.0000   0.0000   0.0000   0.2984
  -1.500  -0.2272   0.00987   0.00345   0.0123  1.0000  0.8475  -0.7171   0.0000   0.0000   0.0000   0.3021
  -1.400  -0.2160   0.00987   0.00345   0.0125  1.0000  0.8654  -0.6771   0.0000   0.0000   0.0000   0.3058
  -1.300  -0.2035   0.00988   0.00347   0.0124  1.0000  0.8817  -0.6388   0.0000   0.0000   0.0000   0.3091
  -1.200  -0.1903   0.00989   0.00348   0.0122  1.0000  0.8970  -0.6002   0.0000   0.0000   0.0000   0.3120
  -1.100  -0.1766   0.00991   0.00350   0.0117  1.0000  0.9111  -0.5638   0.0000   0.0000   0.0000   0.3147
  -1.000  -0.1623   0.00992   0.00351   0.0112  1.0000  0.9242  -0.5282   0.0000   0.0000   0.0000   0.3172
  -0.900  -0.1470   0.00994   0.00352   0.0104  1.0000  0.9359  -0.4940   0.0000   0.0000   0.0000   0.3190
  -0.800  -0.1310   0.00996   0.00353   0.0094  1.0000  0.9464  -0.4615   0.0000   0.0000   0.0000   0.3203
  -0.700  -0.1147   0.00998   0.00353   0.0084  1.0000  0.9561  -0.4310   0.0000   0.0000   0.0000   0.3212
  -0.600  -0.0980   0.01000   0.00353   0.0072  1.0000  0.9649  -0.4026   0.0000   0.0000   0.0000   0.3217
  -0.500  -0.0811   0.01001   0.00353   0.0059  1.0000  0.9731  -0.3765   0.0000   0.0000   0.0000   0.3216
  -0.400  -0.0639   0.01002   0.00353   0.0046  1.0000  0.9806  -0.3524   0.0000   0.0000   0.0000   0.3204
  -0.300  -0.0462   0.01003   0.00353   0.0031  1.0000  0.9872  -0.3301   0.0000   0.0000   0.0000   0.3163
  -0.200  -0.0278   0.01003   0.00353   0.0015  1.0000  0.9930  -0.3092   0.0000   0.0000   0.0000   0.3030
  -0.100  -0.0093   0.01002   0.00352  -0.0001  1.0000  0.9983  -0.2901   0.0000   0.0000   0.0000   0.2325
   0.000   0.0000   0.01002   0.00352  -0.0000  1.0000  1.0000  -0.2783   0.0000   0.0000   0.0000   0.4178
   0.100   0.0093   0.01002   0.00352   0.0001  0.9983  1.0000  -0.2901   0.0000   0.0000   0.0000   0.2325
   0.200   0.0278   0.01003   0.00353  -0.0015  0.9930  1.0000  -0.3092   0.0000   0.0000   0.0000   0.3030
   0.300   0.0461   0.01003   0.00353  -0.0031  0.9872  1.0000  -0.3301   0.0000   0.0000   0.0000   0.3163
   0.400   0.0639   0.01002   0.00353  -0.0046  0.9806  1.0000  -0.3524   0.0000   0.0000   0.0000   0.3204
   0.500   0.0811   0.01001   0.00353  -0.0059  0.9731  1.0000  -0.3765   0.0000   0.0000   0.0000   0.3216
   0.600   0.0980   0.01000   0.00353  -0.0072  0.9649  1.0000  -0.4025   0.0000   0.0000   0.0000   0.3217
   0.700   0.1147   0.00998   0.00353  -0.0084  0.9561  1.0000  -0.4310   0.0000   0.0000   0.0000   0.3212
   0.800   0.1310   0.00996   0.00353  -0.0094  0.9464  1.0000  -0.4615   0.0000   0.0000   0.0000   0.3203
   0.900   0.1470   0.00994   0.00352  -0.0104  0.9359  1.0000  -0.4939   0.0000   0.0000   0.0000   0.3190
   1.000   0.1623   0.00992   0.00351  -0.0112  0.9242  1.0000  -0.5282   0.0000   0.0000   0.0000   0.3172
   1.100   0.1766   0.00991   0.00350  -0.0117  0.9111  1.0000  -0.5638   0.0000   0.0000   0.0000   0.3147
   1.200   0.1903   0.00989   0.00348  -0.0122  0.8969  1.0000  -0.6002   0.0000   0.0000   0.0000   0.3120
   1.300   0.2035   0.00988   0.00347  -0.0124  0.8817  1.0000  -0.6388   0.0000   0.0000   0.0000   0.3091
   1.400   0.2159   0.00987   0.00345  -0.0125  0.8654  1.0000  -0.6770   0.0000   0.0000   0.0000   0.3058
   1.600   0.2382   0.00987   0.00342  -0.0120  0.8289  1.0000  -0.7570   0.0000   0.0000   0.0000   0.2984
   1.700   0.2486   0.00989   0.00341  -0.0116  0.8091  1.0000  -0.7974   0.0000   0.0000   0.0000   0.2947
   1.800   0.2588   0.00992   0.00339  -0.0112  0.7884  1.0000  -0.8409   0.0000   0.0000   0.0000   0.2911
   1.900   0.2686   0.00997   0.00339  -0.0106  0.7664  1.0000  -0.8842   0.0000   0.0000   0.0000   0.2876
   2.000   0.2782   0.01002   0.00338  -0.0101  0.7439  1.0000  -0.9275   0.0000   0.0000   0.0000   0.2841
   2.100   0.2876   0.01010   0.00338  -0.0095  0.7201  1.0000  -0.9723   0.0000   0.0000   0.0000   0.2809
   2.200   0.2968   0.01018   0.00339  -0.0089  0.6955  1.0000  -1.0206   0.0000   0.0000   0.0000   0.2778
   2.300   0.3059   0.01028   0.00340  -0.0083  0.6702  1.0000  -1.0690   0.0000   0.0000   0.0000   0.2749
   2.400   0.3149   0.01040   0.00341  -0.0077  0.6441  1.0000  -1.1178   0.0000   0.0000   0.0000   0.2722
   2.500   0.3240   0.01052   0.00346  -0.0072  0.6171  1.0000  -1.1670   0.0000   0.0000   0.0000   0.2697
   2.600   0.3329   0.01066   0.00349  -0.0066  0.5894  1.0000  -1.2166   0.0000   0.0000   0.0000   0.2674
   2.700   0.3419   0.01081   0.00353  -0.0061  0.5611  1.0000  -1.2718   0.0000   0.0000   0.0000   0.2653
   2.800   0.3508   0.01097   0.00358  -0.0056  0.5321  1.0000  -1.3280   0.0000   0.0000   0.0000   0.2633
   2.900   0.3597   0.01114   0.00363  -0.0051  0.5025  1.0000  -1.3848   0.0000   0.0000   0.0000   0.2615
   3.000   0.3686   0.01133   0.00369  -0.0046  0.4724  1.0000  -1.4420   0.0000   0.0000   0.0000   0.2598
   3.100   0.3774   0.01152   0.00376  -0.0041  0.4416  1.0000  -1.4997   0.0000   0.0000   0.0000   0.2583
   3.200   0.3863   0.01173   0.00384  -0.0037  0.4101  1.0000  -1.5579   0.0000   0.0000   0.0000   0.2569
   3.300   0.3952   0.01195   0.00392  -0.0033  0.3782  1.0000  -1.6165   0.0000   0.0000   0.0000   0.2556
   3.400   0.4041   0.01218   0.00404  -0.0029  0.3461  1.0000  -1.6758   0.0000   0.0000   0.0000   0.2544
   3.500   0.4130   0.01242   0.00414  -0.0026  0.3135  1.0000  -1.7426   0.0000   0.0000   0.0000   0.2534
   3.600   0.4219   0.01267   0.00426  -0.0023  0.2812  1.0000  -1.8099   0.0000   0.0000   0.0000   0.2524
   3.800   0.4397   0.01322   0.00453  -0.0016  0.2190  1.0000  -1.9460   0.0000   0.0000   0.0000   0.2507
   3.900   0.4487   0.01351   0.00469  -0.0014  0.1908  1.0000  -2.0146   0.0000   0.0000   0.0000   0.2499
   4.000   0.4577   0.01380   0.00485  -0.0011  0.1651  1.0000  -2.0834   0.0000   0.0000   0.0000   0.2492
   4.100   0.4668   0.01409   0.00504  -0.0008  0.1428  1.0000  -2.1526   0.0000   0.0000   0.0000   0.2485
   4.200   0.4759   0.01438   0.00523  -0.0005  0.1241  1.0000  -2.2218   0.0000   0.0000   0.0000   0.2478
   4.400   0.4944   0.01495   0.00568   0.0000  0.0966  1.0000  -2.3606   0.0000   0.0000   0.0000   0.2465
   4.500   0.5037   0.01523   0.00592   0.0003  0.0870  1.0000  -2.4299   0.0000   0.0000   0.0000   0.2459
   4.600   0.5130   0.01552   0.00616   0.0006  0.0792  1.0000  -2.5016   0.0000   0.0000   0.0000   0.2453
   4.700   0.5223   0.01579   0.00642   0.0009  0.0726  1.0000  -2.5812   0.0000   0.0000   0.0000   0.2447
   4.800   0.5317   0.01607   0.00669   0.0012  0.0673  1.0000  -2.6603   0.0000   0.0000   0.0000   0.2441
   4.900   0.5410   0.01636   0.00697   0.0015  0.0628  1.0000  -2.7402   0.0000   0.0000   0.0000   0.2435
   5.000   0.5503   0.01665   0.00724   0.0018  0.0587  1.0000  -2.8217   0.0000   0.0000   0.0000   0.2430
   5.100   0.5597   0.01693   0.00755   0.0021  0.0551  1.0000  -2.9007   0.0000   0.0000   0.0000   0.2424
   5.200   0.5689   0.01724   0.00785   0.0024  0.0525  1.0000  -2.9817   0.0000   0.0000   0.0000   0.2419
   5.300   0.5782   0.01755   0.00821   0.0027  0.0498  1.0000  -3.0590   0.0000   0.0000   0.0000   0.2413
   5.400   0.5874   0.01786   0.00851   0.0030  0.0473  1.0000  -3.1416   0.0000   0.0000   0.0000   0.2409
   5.500   0.5967   0.01818   0.00885   0.0033  0.0450  1.0000  -3.2222   0.0000   0.0000   0.0000   0.2404
   5.600   0.6060   0.01849   0.00920   0.0036  0.0428  1.0000  -3.3024   0.0000   0.0000   0.0000   0.2399
   5.700   0.6150   0.01885   0.00955   0.0039  0.0414  1.0000  -3.3841   0.0000   0.0000   0.0000   0.2394
   5.800   0.6240   0.01925   0.00997   0.0042  0.0400  1.0000  -3.4588   0.0000   0.0000   0.0000   0.2388
   5.900   0.6333   0.01963   0.01041   0.0046  0.0385  1.0000  -3.5324   0.0000   0.0000   0.0000   0.2383
   6.000   0.6425   0.01999   0.01078   0.0049  0.0370  1.0000  -3.6146   0.0000   0.0000   0.0000   0.2379
   6.100   0.6514   0.02037   0.01113   0.0051  0.0358  1.0000  -3.7035   0.0000   0.0000   0.0000   0.2375
   6.200   0.6607   0.02077   0.01162   0.0055  0.0343  1.0000  -3.7755   0.0000   0.0000   0.0000   0.2371
   6.300   0.6700   0.02117   0.01209   0.0058  0.0330  1.0000  -3.8528   0.0000   0.0000   0.0000   0.2366
   6.400   0.6791   0.02160   0.01254   0.0061  0.0321  1.0000  -3.9368   0.0000   0.0000   0.0000   0.2362
   6.500   0.6881   0.02206   0.01300   0.0064  0.0314  1.0000  -4.0323   0.0000   0.0000   0.0000   0.2358
   6.600   0.6969   0.02260   0.01353   0.0067  0.0307  1.0000  -4.1227   0.0000   0.0000   0.0000   0.2354
   6.700   0.7062   0.02319   0.01424   0.0071  0.0300  1.0000  -4.1959   0.0000   0.0000   0.0000   0.2349
   6.800   0.7154   0.02377   0.01492   0.0074  0.0291  1.0000  -4.2745   0.0000   0.0000   0.0000   0.2345
   6.900   0.7245   0.02428   0.01551   0.0078  0.0282  1.0000  -4.3626   0.0000   0.0000   0.0000   0.2341
   7.000   0.7335   0.02473   0.01599   0.0080  0.0274  1.0000  -4.4632   0.0000   0.0000   0.0000   0.2338
   7.100   0.7423   0.02516   0.01641   0.0082  0.0267  1.0000  -4.5729   0.0000   0.0000   0.0000   0.2336
   7.200   0.7511   0.02580   0.01716   0.0085  0.0259  1.0000  -4.6526   0.0000   0.0000   0.0000   0.2332
   7.300   0.7599   0.02654   0.01808   0.0089  0.0251  1.0000  -4.7178   0.0000   0.0000   0.0000   0.2327
   7.400   0.7685   0.02732   0.01900   0.0093  0.0246  1.0000  -4.7838   0.0000   0.0000   0.0000   0.2323
   7.500   0.7769   0.02811   0.01991   0.0097  0.0241  1.0000  -4.8519   0.0000   0.0000   0.0000   0.2319
   7.600   0.7852   0.02888   0.02079   0.0101  0.0237  1.0000  -4.9229   0.0000   0.0000   0.0000   0.2315
   7.700   0.7933   0.02965   0.02167   0.0104  0.0234  1.0000  -4.9959   0.0000   0.0000   0.0000   0.2311
   7.800   0.8012   0.03042   0.02254   0.0107  0.0230  1.0000  -5.0711   0.0000   0.0000   0.0000   0.2307
   7.900   0.8090   0.03120   0.02340   0.0111  0.0227  1.0000  -5.1491   0.0000   0.0000   0.0000   0.2304
   8.000   0.8165   0.03201   0.02428   0.0114  0.0225  1.0000  -5.2284   0.0000   0.0000   0.0000   0.2300
   8.100   0.8235   0.03298   0.02535   0.0117  0.0222  1.0000  -5.2921   0.0000   0.0000   0.0000   0.2296
   8.200   0.8288   0.03446   0.02715   0.0124  0.0219  1.0000  -5.2842   0.0000   0.0000   0.0000   0.2289
   8.300   0.8334   0.03600   0.02901   0.0130  0.0214  1.0000  -5.2742   0.0000   0.0000   0.0000   0.2282
   8.400   0.8376   0.03750   0.03077   0.0135  0.0209  1.0000  -5.2743   0.0000   0.0000   0.0000   0.2276
   8.500   0.8418   0.03886   0.03236   0.0140  0.0204  1.0000  -5.2906   0.0000   0.0000   0.0000   0.2270
   8.600   0.8461   0.04008   0.03374   0.0144  0.0200  1.0000  -5.3241   0.0000   0.0000   0.0000   0.2266
   8.700   0.8506   0.04115   0.03495   0.0148  0.0196  1.0000  -5.3726   0.0000   0.0000   0.0000   0.2261
   8.800   0.8552   0.04215   0.03605   0.0151  0.0193  1.0000  -5.4301   0.0000   0.0000   0.0000   0.2258
   8.900   0.8594   0.04318   0.03719   0.0154  0.0191  1.0000  -5.4846   0.0000   0.0000   0.0000   0.2254
   9.000   0.8626   0.04440   0.03852   0.0158  0.0189  1.0000  -5.5207   0.0000   0.0000   0.0000   0.2250
   9.100   0.8653   0.04564   0.03987   0.0161  0.0188  1.0000  -5.5557   0.0000   0.0000   0.0000   0.2246
   9.200   0.8670   0.04702   0.04138   0.0164  0.0187  1.0000  -5.5756   0.0000   0.0000   0.0000   0.2242
   9.300   0.8679   0.04846   0.04293   0.0167  0.0186  1.0000  -5.5904   0.0000   0.0000   0.0000   0.2238
   9.400   0.8679   0.04997   0.04456   0.0170  0.0185  1.0000  -5.5975   0.0000   0.0000   0.0000   0.2234
   9.500   0.8669   0.05157   0.04628   0.0172  0.0185  1.0000  -5.5941   0.0000   0.0000   0.0000   0.2230
   9.600   0.8628   0.05359   0.04845   0.0174  0.0185  1.0000  -5.5416   0.0000   0.0000   0.0000   0.2227
   9.700   0.8576   0.05563   0.05063   0.0174  0.0185  1.0000  -5.4861   0.0000   0.0000   0.0000   0.2224
   9.800   0.8518   0.05764   0.05276   0.0173  0.0185  1.0000  -5.4324   0.0000   0.0000   0.0000   0.2223
   9.900   0.8450   0.05947   0.05469   0.0173  0.0185  1.0000  -5.3843   0.0000   0.0000   0.0000   0.2221
  10.200   0.7557   0.08684   0.08253  -0.0042  0.0202  1.0000  -3.9004   0.0000   0.0000   0.0000   0.2483
  10.300   0.7489   0.09092   0.08659  -0.0069  0.0204  1.0000  -3.7611   0.0000   0.0000   0.0000   0.2519
  10.400   0.7435   0.09441   0.09005  -0.0090  0.0205  1.0000  -3.6516   0.0000   0.0000   0.0000   0.2548
  10.500   0.7389   0.09758   0.09320  -0.0108  0.0206  1.0000  -3.5582   0.0000   0.0000   0.0000   0.2573
  10.600   0.7350   0.10054   0.09614  -0.0125  0.0207  1.0000  -3.4748   0.0000   0.0000   0.0000   0.2596
  10.700   0.7315   0.10336   0.09895  -0.0140  0.0208  1.0000  -3.3980   0.0000   0.0000   0.0000   0.2617
  10.800   0.7285   0.10606   0.10163  -0.0154  0.0209  1.0000  -3.3279   0.0000   0.0000   0.0000   0.2636
  10.900   0.7259   0.10865   0.10420  -0.0167  0.0209  1.0000  -3.2633   0.0000   0.0000   0.0000   0.2654
  11.000   0.7237   0.11116   0.10669  -0.0179  0.0210  1.0000  -3.2034   0.0000   0.0000   0.0000   0.2671
  11.100   0.7217   0.11358   0.10910  -0.0190  0.0211  1.0000  -3.1477   0.0000   0.0000   0.0000   0.2687
  11.200   0.7200   0.11594   0.11144  -0.0201  0.0212  1.0000  -3.0957   0.0000   0.0000   0.0000   0.2702
  11.300   0.7187   0.11823   0.11373  -0.0211  0.0212  1.0000  -3.0470   0.0000   0.0000   0.0000   0.2717
  11.400   0.7175   0.12048   0.11597  -0.0221  0.0213  1.0000  -3.0010   0.0000   0.0000   0.0000   0.2731
  11.500   0.7166   0.12268   0.11815  -0.0231  0.0214  1.0000  -2.9591   0.0000   0.0000   0.0000   0.2744
  11.600   0.7158   0.12482   0.12028  -0.0240  0.0214  1.0000  -2.9258   0.0000   0.0000   0.0000   0.2756
  11.700   0.7153   0.12691   0.12236  -0.0249  0.0215  1.0000  -2.8957   0.0000   0.0000   0.0000   0.2768
  11.800   0.7151   0.12895   0.12440  -0.0257  0.0216  1.0000  -2.8689   0.0000   0.0000   0.0000   0.2779
  11.900   0.7150   0.13094   0.12638  -0.0265  0.0217  1.0000  -2.8456   0.0000   0.0000   0.0000   0.2790
  12.000   0.7152   0.13288   0.12831  -0.0273  0.0218  1.0000  -2.8261   0.0000   0.0000   0.0000   0.2800
  12.100   0.7156   0.13476   0.13018  -0.0280  0.0219  1.0000  -2.8109   0.0000   0.0000   0.0000   0.2809
  12.200   0.7162   0.13656   0.13198  -0.0286  0.0220  1.0000  -2.8008   0.0000   0.0000   0.0000   0.2817
  12.300   0.7171   0.13828   0.13370  -0.0292  0.0220  1.0000  -2.7969   0.0000   0.0000   0.0000   0.2824
  12.400   0.7183   0.13991   0.13533  -0.0297  0.0221  1.0000  -2.8008   0.0000   0.0000   0.0000   0.2829
  12.500   0.7199   0.14143   0.13684  -0.0302  0.0222  1.0000  -2.8141   0.0000   0.0000   0.0000   0.2833
  12.800   0.7131   0.15102   0.14640  -0.0350  0.0251  1.0000  -2.4230   0.0000   0.0000   0.0000   0.2906
  12.900   0.7150   0.15262   0.14799  -0.0355  0.0256  1.0000  -2.4257   0.0000   0.0000   0.0000   0.2910
  13.000   0.7182   0.15387   0.14925  -0.0355  0.0260  1.0000  -2.4645   0.0000   0.0000   0.0000   0.2907
  13.100   0.7228   0.15465   0.15004  -0.0350  0.0263  1.0000  -2.5475   0.0000   0.0000   0.0000   0.2895
  13.200   0.7147   0.16091   0.15630  -0.0387  0.0370  1.0000  -2.1353   0.0000   0.0000   0.0000   0.2956
  13.300   0.7173   0.16232   0.15770  -0.0391  0.0366  1.0000  -2.1543   0.0000   0.0000   0.0000   0.2958
  13.500   0.5414   0.14295   0.13860  -0.0163  0.0259  1.0000  -1.9210   0.0000   0.0000   0.0000   0.2733
  13.600   0.5437   0.14387   0.13953  -0.0163  0.0262  1.0000  -1.9513   0.0000   0.0000   0.0000   0.2730
  13.800   0.5392   0.14916   0.14484  -0.0175  0.0405  1.0000  -1.6870   0.0000   0.0000   0.0000   0.2757
  13.900   0.5393   0.15030   0.14599  -0.0178  0.0405  1.0000  -1.6773   0.0000   0.0000   0.0000   0.2763
  14.000   0.5391   0.15144   0.14713  -0.0183  0.0405  1.0000  -1.6629   0.0000   0.0000   0.0000   0.2772
  14.100   0.5387   0.15257   0.14825  -0.0188  0.0405  1.0000  -1.6447   0.0000   0.0000   0.0000   0.2781
  14.200   0.5380   0.15369   0.14937  -0.0193  0.0405  1.0000  -1.6236   0.0000   0.0000   0.0000   0.2791
  14.300   0.5373   0.15480   0.15049  -0.0199  0.0404  1.0000  -1.6003   0.0000   0.0000   0.0000   0.2802
  14.400   0.5364   0.15590   0.15159  -0.0205  0.0403  1.0000  -1.5731   0.0000   0.0000   0.0000   0.2815
  14.500   0.5352   0.15700   0.15268  -0.0212  0.0401  1.0000  -1.5415   0.0000   0.0000   0.0000   0.2829
  14.600   0.5343   0.15809   0.15378  -0.0219  0.0396  1.0000  -1.5120   0.0000   0.0000   0.0000   0.2842
  14.700   0.5341   0.15918   0.15486  -0.0225  0.0390  1.0000  -1.4927   0.0000   0.0000   0.0000   0.2853
  14.800   0.5345   0.16024   0.15593  -0.0230  0.0384  1.0000  -1.4826   0.0000   0.0000   0.0000   0.2861
  14.900   0.5354   0.16126   0.15695  -0.0234  0.0377  1.0000  -1.4808   0.0000   0.0000   0.0000   0.2868
  15.000   0.5370   0.16223   0.15793  -0.0237  0.0370  1.0000  -1.4909   0.0000   0.0000   0.0000   0.2871


