xflr5 v6.59

 Calculated polar for: SF-15

 1 1 Reynolds number fixed          Mach number fixed         

 xtrf =   1.000 (top)        1.000 (bottom)
 Mach =   0.050     Re =     0.300 e 6     Ncrit =   5.000

  alpha     CL        CD       CDp       Cm    Top Xtr Bot Xtr   Cpmin    Chinge    XCp    
 ------- -------- --------- --------- -------- ------- ------- -------- --------- ---------
  -3.000   0.5248   0.01194   0.00468  -0.1834  0.7121  0.0376  -1.9605   0.0000   0.0000   0.0000   0.6035
  -2.900   0.5361   0.01184   0.00456  -0.1834  0.7091  0.0387  -1.8923   0.0000   0.0000   0.0000   0.5960
  -2.800   0.5473   0.01177   0.00445  -0.1834  0.7063  0.0399  -1.8249   0.0000   0.0000   0.0000   0.5887
  -2.700   0.5586   0.01170   0.00434  -0.1834  0.7037  0.0414  -1.7592   0.0000   0.0000   0.0000   0.5817
  -2.600   0.5698   0.01163   0.00423  -0.1834  0.7007  0.0430  -1.6950   0.0000   0.0000   0.0000   0.5750
  -2.500   0.5809   0.01155   0.00416  -0.1834  0.6976  0.0447  -1.6283   0.0000   0.0000   0.0000   0.5686
  -2.400   0.5920   0.01150   0.00409  -0.1834  0.6945  0.0467  -1.5619   0.0000   0.0000   0.0000   0.5624
  -2.300   0.6031   0.01145   0.00400  -0.1834  0.6914  0.0488  -1.4982   0.0000   0.0000   0.0000   0.5564
  -2.200   0.6143   0.01139   0.00392  -0.1834  0.6885  0.0508  -1.4346   0.0000   0.0000   0.0000   0.5507
  -2.100   0.6255   0.01135   0.00384  -0.1834  0.6857  0.0528  -1.3708   0.0000   0.0000   0.0000   0.5451
  -2.000   0.6366   0.01130   0.00377  -0.1833  0.6829  0.0552  -1.3087   0.0000   0.0000   0.0000   0.5397
  -1.900   0.6477   0.01125   0.00371  -0.1833  0.6798  0.0577  -1.2466   0.0000   0.0000   0.0000   0.5346
  -1.800   0.6588   0.01121   0.00367  -0.1833  0.6766  0.0607  -1.1908   0.0000   0.0000   0.0000   0.5296
  -1.700   0.6698   0.01118   0.00361  -0.1833  0.6735  0.0639  -1.1380   0.0000   0.0000   0.0000   0.5248
  -1.600   0.6809   0.01115   0.00357  -0.1832  0.6705  0.0672  -1.0845   0.0000   0.0000   0.0000   0.5201
  -1.500   0.6919   0.01113   0.00351  -0.1832  0.6677  0.0707  -1.0326   0.0000   0.0000   0.0000   0.5156
  -1.400   0.7030   0.01110   0.00348  -0.1832  0.6649  0.0744  -0.9803   0.0000   0.0000   0.0000   0.5112
  -1.300   0.7140   0.01107   0.00344  -0.1831  0.6618  0.0789  -0.9351   0.0000   0.0000   0.0000   0.5069
  -1.200   0.7249   0.01104   0.00342  -0.1831  0.6586  0.0836  -0.9442   0.0000   0.0000   0.0000   0.5028
  -1.100   0.7359   0.01102   0.00339  -0.1830  0.6554  0.0885  -0.9533   0.0000   0.0000   0.0000   0.4989
  -1.000   0.7468   0.01101   0.00336  -0.1830  0.6524  0.0941  -0.9625   0.0000   0.0000   0.0000   0.4950
  -0.900   0.7578   0.01099   0.00332  -0.1829  0.6496  0.1002  -0.9719   0.0000   0.0000   0.0000   0.4912
  -0.800   0.7687   0.01098   0.00331  -0.1829  0.6467  0.1069  -0.9814   0.0000   0.0000   0.0000   0.4876
  -0.700   0.7796   0.01096   0.00330  -0.1828  0.6436  0.1142  -0.9909   0.0000   0.0000   0.0000   0.4840
  -0.600   0.7905   0.01094   0.00329  -0.1828  0.6404  0.1225  -1.0005   0.0000   0.0000   0.0000   0.4806
  -0.400   0.8122   0.01092   0.00327  -0.1827  0.6342  0.1418  -1.0202   0.0000   0.0000   0.0000   0.4739
  -0.300   0.8230   0.01092   0.00327  -0.1826  0.6313  0.1531  -1.0301   0.0000   0.0000   0.0000   0.4707
  -0.200   0.8339   0.01090   0.00328  -0.1826  0.6283  0.1660  -1.0403   0.0000   0.0000   0.0000   0.4677
  -0.100   0.8447   0.01089   0.00329  -0.1825  0.6252  0.1801  -1.0505   0.0000   0.0000   0.0000   0.4646
   0.000   0.8555   0.01088   0.00330  -0.1825  0.6219  0.1954  -1.0608   0.0000   0.0000   0.0000   0.4617
   0.100   0.8662   0.01087   0.00332  -0.1824  0.6187  0.2126  -1.0712   0.0000   0.0000   0.0000   0.4588
   0.200   0.8769   0.01087   0.00332  -0.1823  0.6157  0.2307  -1.0819   0.0000   0.0000   0.0000   0.4560
   0.300   0.8875   0.01087   0.00334  -0.1822  0.6129  0.2503  -1.0925   0.0000   0.0000   0.0000   0.4533
   0.400   0.8983   0.01085   0.00337  -0.1822  0.6098  0.2714  -1.1033   0.0000   0.0000   0.0000   0.4507
   0.600   0.9196   0.01083   0.00344  -0.1821  0.6033  0.3173  -1.1255   0.0000   0.0000   0.0000   0.4455
   0.700   0.9302   0.01083   0.00347  -0.1820  0.6002  0.3424  -1.1366   0.0000   0.0000   0.0000   0.4430
   0.800   0.9407   0.01083   0.00351  -0.1819  0.5972  0.3692  -1.1480   0.0000   0.0000   0.0000   0.4406
   0.900   0.9513   0.01082   0.00355  -0.1818  0.5943  0.3979  -1.1595   0.0000   0.0000   0.0000   0.4382
   1.000   0.9618   0.01080   0.00360  -0.1817  0.5911  0.4288  -1.1710   0.0000   0.0000   0.0000   0.4359
   1.100   0.9723   0.01079   0.00365  -0.1816  0.5878  0.4615  -1.1827   0.0000   0.0000   0.0000   0.4336
   1.200   0.9826   0.01078   0.00370  -0.1814  0.5846  0.4964  -1.1946   0.0000   0.0000   0.0000   0.4314
   1.300   0.9927   0.01077   0.00376  -0.1812  0.5816  0.5331  -1.2064   0.0000   0.0000   0.0000   0.4291
   1.400   1.0028   0.01076   0.00381  -0.1810  0.5787  0.5723  -1.2182   0.0000   0.0000   0.0000   0.4270
   1.600   1.0227   0.01069   0.00393  -0.1805  0.5723  0.6583  -1.2425   0.0000   0.0000   0.0000   0.4227
   1.700   1.0319   0.01063   0.00398  -0.1801  0.5691  0.7077  -1.2542   0.0000   0.0000   0.0000   0.4206
   1.800   1.0390   0.01048   0.00400  -0.1792  0.5661  0.7902  -1.2646   0.0000   0.0000   0.0000   0.4183
   2.000   1.0592   0.01039   0.00400  -0.1786  0.5600  1.0000  -1.2904   0.0000   0.0000   0.0000   0.4142
   2.100   1.0695   0.01044   0.00403  -0.1784  0.5567  1.0000  -1.3035   0.0000   0.0000   0.0000   0.4123
   2.200   1.0798   0.01051   0.00407  -0.1783  0.5533  1.0000  -1.3167   0.0000   0.0000   0.0000   0.4104
   2.300   1.0899   0.01059   0.00410  -0.1781  0.5501  1.0000  -1.3302   0.0000   0.0000   0.0000   0.4086
   2.400   1.0999   0.01067   0.00414  -0.1778  0.5470  1.0000  -1.3437   0.0000   0.0000   0.0000   0.4067
   2.500   1.1102   0.01073   0.00419  -0.1777  0.5439  1.0000  -1.3573   0.0000   0.0000   0.0000   0.4049
   2.600   1.1204   0.01080   0.00423  -0.1775  0.5405  1.0000  -1.3712   0.0000   0.0000   0.0000   0.4032
   2.700   1.1304   0.01087   0.00428  -0.1773  0.5371  1.0000  -1.3853   0.0000   0.0000   0.0000   0.4015
   2.800   1.1403   0.01095   0.00433  -0.1771  0.5337  1.0000  -1.3994   0.0000   0.0000   0.0000   0.3997
   2.900   1.1501   0.01104   0.00438  -0.1768  0.5306  1.0000  -1.4134   0.0000   0.0000   0.0000   0.3981
   3.000   1.1602   0.01110   0.00445  -0.1766  0.5274  1.0000  -1.4277   0.0000   0.0000   0.0000   0.3964
   3.100   1.1702   0.01117   0.00450  -0.1764  0.5239  1.0000  -1.4425   0.0000   0.0000   0.0000   0.3948
   3.200   1.1800   0.01125   0.00456  -0.1762  0.5204  1.0000  -1.4573   0.0000   0.0000   0.0000   0.3932
   3.300   1.1896   0.01134   0.00462  -0.1759  0.5170  1.0000  -1.4719   0.0000   0.0000   0.0000   0.3916
   3.400   1.1992   0.01143   0.00468  -0.1756  0.5139  1.0000  -1.4865   0.0000   0.0000   0.0000   0.3900
   3.500   1.2091   0.01150   0.00474  -0.1754  0.5104  1.0000  -1.5016   0.0000   0.0000   0.0000   0.3885
   3.600   1.2189   0.01157   0.00480  -0.1751  0.5068  1.0000  -1.5171   0.0000   0.0000   0.0000   0.3870
   3.700   1.2284   0.01166   0.00487  -0.1748  0.5033  1.0000  -1.5323   0.0000   0.0000   0.0000   0.3855
   3.800   1.2376   0.01176   0.00494  -0.1745  0.4999  1.0000  -1.5475   0.0000   0.0000   0.0000   0.3840
   3.900   1.2472   0.01184   0.00501  -0.1742  0.4966  1.0000  -1.5629   0.0000   0.0000   0.0000   0.3825
   4.000   1.2568   0.01192   0.00508  -0.1739  0.4930  1.0000  -1.5785   0.0000   0.0000   0.0000   0.3811
   4.100   1.2662   0.01201   0.00517  -0.1736  0.4893  1.0000  -1.5944   0.0000   0.0000   0.0000   0.3797
   4.200   1.2752   0.01211   0.00524  -0.1732  0.4857  1.0000  -1.6102   0.0000   0.0000   0.0000   0.3783
   4.300   1.2843   0.01221   0.00532  -0.1728  0.4824  1.0000  -1.6260   0.0000   0.0000   0.0000   0.3769
   4.400   1.2938   0.01229   0.00540  -0.1725  0.4787  1.0000  -1.6421   0.0000   0.0000   0.0000   0.3755
   4.500   1.3029   0.01238   0.00548  -0.1722  0.4749  1.0000  -1.6581   0.0000   0.0000   0.0000   0.3742
   4.600   1.3117   0.01249   0.00557  -0.1718  0.4712  1.0000  -1.6739   0.0000   0.0000   0.0000   0.3728
   4.700   1.3203   0.01260   0.00566  -0.1713  0.4678  1.0000  -1.6901   0.0000   0.0000   0.0000   0.3715
   4.800   1.3296   0.01269   0.00574  -0.1710  0.4641  1.0000  -1.7069   0.0000   0.0000   0.0000   0.3702
   4.900   1.3384   0.01278   0.00583  -0.1706  0.4602  1.0000  -1.7235   0.0000   0.0000   0.0000   0.3689
   5.000   1.3469   0.01289   0.00593  -0.1701  0.4564  1.0000  -1.7397   0.0000   0.0000   0.0000   0.3676
   5.100   1.3551   0.01302   0.00602  -0.1696  0.4528  1.0000  -1.7556   0.0000   0.0000   0.0000   0.3663
   5.200   1.3640   0.01311   0.00612  -0.1692  0.4490  1.0000  -1.7723   0.0000   0.0000   0.0000   0.3650
   5.300   1.3726   0.01321   0.00624  -0.1688  0.4451  1.0000  -1.7887   0.0000   0.0000   0.0000   0.3637
   5.400   1.3806   0.01333   0.00634  -0.1682  0.4412  1.0000  -1.8054   0.0000   0.0000   0.0000   0.3625
   5.500   1.3885   0.01346   0.00645  -0.1676  0.4376  1.0000  -1.8219   0.0000   0.0000   0.0000   0.3612
   5.600   1.3970   0.01356   0.00655  -0.1672  0.4336  1.0000  -1.8391   0.0000   0.0000   0.0000   0.3600
   5.700   1.4049   0.01367   0.00666  -0.1666  0.4295  1.0000  -1.8557   0.0000   0.0000   0.0000   0.3588
   5.800   1.4124   0.01380   0.00678  -0.1660  0.4257  1.0000  -1.8720   0.0000   0.0000   0.0000   0.3575
   5.900   1.4201   0.01393   0.00689  -0.1654  0.4221  1.0000  -1.8884   0.0000   0.0000   0.0000   0.3563
   6.000   1.4280   0.01404   0.00701  -0.1648  0.4180  1.0000  -1.9051   0.0000   0.0000   0.0000   0.3551
   6.100   1.4343   0.01419   0.00714  -0.1639  0.4123  1.0000  -1.9202   0.0000   0.0000   0.0000   0.3539
   6.200   1.4387   0.01437   0.00727  -0.1627  0.4036  1.0000  -1.9336   0.0000   0.0000   0.0000   0.3525
   6.300   1.4404   0.01458   0.00742  -0.1610  0.3935  1.0000  -1.9447   0.0000   0.0000   0.0000   0.3510
   6.400   1.4412   0.01483   0.00759  -0.1591  0.3819  1.0000  -1.9550   0.0000   0.0000   0.0000   0.3495
   6.500   1.4420   0.01509   0.00777  -0.1573  0.3688  1.0000  -1.9652   0.0000   0.0000   0.0000   0.3480
   6.600   1.4447   0.01533   0.00798  -0.1558  0.3584  1.0000  -1.9774   0.0000   0.0000   0.0000   0.3466
   6.700   1.4451   0.01565   0.00821  -0.1540  0.3445  1.0000  -1.9871   0.0000   0.0000   0.0000   0.3452
   6.800   1.4451   0.01600   0.00847  -0.1521  0.3305  1.0000  -1.9963   0.0000   0.0000   0.0000   0.3437
   6.900   1.4451   0.01636   0.00874  -0.1503  0.3172  1.0000  -2.0056   0.0000   0.0000   0.0000   0.3423
   7.000   1.4462   0.01671   0.00901  -0.1487  0.3053  1.0000  -2.0159   0.0000   0.0000   0.0000   0.3409
   7.100   1.4492   0.01700   0.00925  -0.1474  0.2973  1.0000  -2.0283   0.0000   0.0000   0.0000   0.3397
   7.200   1.4534   0.01725   0.00948  -0.1463  0.2907  1.0000  -2.0419   0.0000   0.0000   0.0000   0.3385
   7.300   1.4573   0.01751   0.00972  -0.1452  0.2845  1.0000  -2.0552   0.0000   0.0000   0.0000   0.3373
   7.400   1.4609   0.01779   0.00997  -0.1440  0.2780  1.0000  -2.0682   0.0000   0.0000   0.0000   0.3361
   7.500   1.4647   0.01807   0.01022  -0.1429  0.2719  1.0000  -2.0813   0.0000   0.0000   0.0000   0.3349
   7.600   1.4683   0.01836   0.01049  -0.1418  0.2654  1.0000  -2.0944   0.0000   0.0000   0.0000   0.3338
   7.700   1.4722   0.01866   0.01076  -0.1408  0.2594  1.0000  -2.1080   0.0000   0.0000   0.0000   0.3326
   7.800   1.4759   0.01896   0.01104  -0.1397  0.2531  1.0000  -2.1218   0.0000   0.0000   0.0000   0.3315
   7.900   1.4794   0.01928   0.01133  -0.1386  0.2473  1.0000  -2.1355   0.0000   0.0000   0.0000   0.3304
   8.000   1.4830   0.01959   0.01163  -0.1376  0.2414  1.0000  -2.1491   0.0000   0.0000   0.0000   0.3293
   8.100   1.4861   0.01994   0.01197  -0.1365  0.2352  1.0000  -2.1623   0.0000   0.0000   0.0000   0.3282
   8.200   1.4897   0.02027   0.01228  -0.1354  0.2292  1.0000  -2.1760   0.0000   0.0000   0.0000   0.3271
   8.300   1.4932   0.02062   0.01261  -0.1344  0.2239  1.0000  -2.1895   0.0000   0.0000   0.0000   0.3260
   8.400   1.4968   0.02096   0.01294  -0.1334  0.2184  1.0000  -2.2032   0.0000   0.0000   0.0000   0.3250
   8.500   1.5000   0.02133   0.01329  -0.1324  0.2135  1.0000  -2.2164   0.0000   0.0000   0.0000   0.3239
   8.600   1.5038   0.02167   0.01363  -0.1315  0.2084  1.0000  -2.2640   0.0000   0.0000   0.0000   0.3229
   8.700   1.5058   0.02212   0.01404  -0.1303  0.2011  1.0000  -2.3242   0.0000   0.0000   0.0000   0.3219
   8.800   1.5056   0.02270   0.01456  -0.1289  0.1901  1.0000  -2.3741   0.0000   0.0000   0.0000   0.3208
   8.900   1.5041   0.02337   0.01515  -0.1274  0.1772  1.0000  -2.4180   0.0000   0.0000   0.0000   0.3197
   9.000   1.5020   0.02411   0.01579  -0.1259  0.1629  1.0000  -2.4590   0.0000   0.0000   0.0000   0.3186
   9.100   1.4995   0.02489   0.01648  -0.1244  0.1491  1.0000  -2.4979   0.0000   0.0000   0.0000   0.3176
   9.200   1.4980   0.02563   0.01714  -0.1230  0.1371  1.0000  -2.5415   0.0000   0.0000   0.0000   0.3166
   9.300   1.4987   0.02625   0.01772  -0.1219  0.1286  1.0000  -2.5952   0.0000   0.0000   0.0000   0.3156
   9.400   1.4987   0.02692   0.01835  -0.1208  0.1194  1.0000  -2.6462   0.0000   0.0000   0.0000   0.3147
   9.500   1.4938   0.02796   0.01927  -0.1192  0.1024  1.0000  -2.6725   0.0000   0.0000   0.0000   0.3137
   9.600   1.4841   0.02938   0.02052  -0.1173  0.0782  1.0000  -2.6748   0.0000   0.0000   0.0000   0.3127
   9.700   1.4747   0.03083   0.02184  -0.1154  0.0566  1.0000  -2.6779   0.0000   0.0000   0.0000   0.3118
   9.800   1.4659   0.03230   0.02320  -0.1137  0.0370  1.0000  -2.6828   0.0000   0.0000   0.0000   0.3110
   9.900   1.4581   0.03375   0.02457  -0.1122  0.0192  1.0000  -2.6919   0.0000   0.0000   0.0000   0.3102
  10.000   1.4529   0.03503   0.02579  -0.1110  0.0059  1.0000  -2.7143   0.0000   0.0000   0.0000   0.3094
  10.100   1.4533   0.03586   0.02663  -0.1102  0.0025  1.0000  -2.7651   0.0000   0.0000   0.0000   0.3086
  10.200   1.4567   0.03644   0.02724  -0.1096  0.0023  1.0000  -2.8321   0.0000   0.0000   0.0000   0.3079
  10.300   1.4598   0.03704   0.02789  -0.1091  0.0022  1.0000  -2.9001   0.0000   0.0000   0.0000   0.3072
  10.400   1.4628   0.03767   0.02854  -0.1085  0.0021  1.0000  -2.9667   0.0000   0.0000   0.0000   0.3064
  10.500   1.4657   0.03831   0.02921  -0.1080  0.0019  1.0000  -3.0335   0.0000   0.0000   0.0000   0.3057
  10.600   1.4688   0.03894   0.02988  -0.1075  0.0018  1.0000  -3.1009   0.0000   0.0000   0.0000   0.3050
  10.700   1.4717   0.03960   0.03057  -0.1070  0.0018  1.0000  -3.1677   0.0000   0.0000   0.0000   0.3043
  10.800   1.4745   0.04027   0.03128  -0.1065  0.0017  1.0000  -3.2346   0.0000   0.0000   0.0000   0.3037
  10.900   1.4774   0.04095   0.03199  -0.1060  0.0016  1.0000  -3.3021   0.0000   0.0000   0.0000   0.3030
  11.000   1.4802   0.04164   0.03272  -0.1055  0.0016  1.0000  -3.3698   0.0000   0.0000   0.0000   0.3024
  11.100   1.4827   0.04237   0.03349  -0.1050  0.0016  1.0000  -3.4363   0.0000   0.0000   0.0000   0.3017
  11.200   1.4852   0.04311   0.03427  -0.1046  0.0015  1.0000  -3.5028   0.0000   0.0000   0.0000   0.3011
  11.300   1.4877   0.04386   0.03505  -0.1042  0.0015  1.0000  -3.5699   0.0000   0.0000   0.0000   0.3005
  11.400   1.4902   0.04462   0.03586  -0.1037  0.0015  1.0000  -3.6368   0.0000   0.0000   0.0000   0.2999
  11.500   1.4924   0.04542   0.03670  -0.1033  0.0014  1.0000  -3.7027   0.0000   0.0000   0.0000   0.2993
  11.600   1.4945   0.04624   0.03756  -0.1029  0.0014  1.0000  -3.7686   0.0000   0.0000   0.0000   0.2987
  11.700   1.4967   0.04706   0.03842  -0.1026  0.0014  1.0000  -3.8348   0.0000   0.0000   0.0000   0.2982
  11.800   1.4986   0.04793   0.03933  -0.1022  0.0014  1.0000  -3.8999   0.0000   0.0000   0.0000   0.2977
  11.900   1.5004   0.04882   0.04028  -0.1018  0.0014  1.0000  -3.9633   0.0000   0.0000   0.0000   0.2971
  12.000   1.5022   0.04971   0.04122  -0.1015  0.0013  1.0000  -4.0278   0.0000   0.0000   0.0000   0.2966
  12.100   1.5039   0.05063   0.04218  -0.1012  0.0013  1.0000  -4.0921   0.0000   0.0000   0.0000   0.2961
  12.200   1.5053   0.05160   0.04320  -0.1009  0.0013  1.0000  -4.1548   0.0000   0.0000   0.0000   0.2956
  12.300   1.5067   0.05258   0.04422  -0.1006  0.0013  1.0000  -4.2177   0.0000   0.0000   0.0000   0.2952
  12.400   1.5080   0.05357   0.04527  -0.1003  0.0013  1.0000  -4.2806   0.0000   0.0000   0.0000   0.2947
  12.500   1.5091   0.05461   0.04636  -0.1001  0.0013  1.0000  -4.3421   0.0000   0.0000   0.0000   0.2943
  12.600   1.5102   0.05567   0.04746  -0.0998  0.0013  1.0000  -4.4034   0.0000   0.0000   0.0000   0.2939
  12.700   1.5112   0.05675   0.04859  -0.0996  0.0013  1.0000  -4.4645   0.0000   0.0000   0.0000   0.2935
  12.800   1.5119   0.05788   0.04978  -0.0994  0.0013  1.0000  -4.5238   0.0000   0.0000   0.0000   0.2931
  12.900   1.5125   0.05903   0.05097  -0.0993  0.0013  1.0000  -4.5829   0.0000   0.0000   0.0000   0.2928
  13.000   1.5132   0.06019   0.05219  -0.0991  0.0012  1.0000  -4.6421   0.0000   0.0000   0.0000   0.2924
  13.100   1.5136   0.06141   0.05346  -0.0990  0.0012  1.0000  -4.6996   0.0000   0.0000   0.0000   0.2921
  13.200   1.5139   0.06265   0.05475  -0.0989  0.0012  1.0000  -4.7565   0.0000   0.0000   0.0000   0.2918
  13.300   1.5141   0.06391   0.05607  -0.0988  0.0012  1.0000  -4.8132   0.0000   0.0000   0.0000   0.2915
  13.400   1.5141   0.06523   0.05744  -0.0988  0.0012  1.0000  -4.8685   0.0000   0.0000   0.0000   0.2913
  13.500   1.5141   0.06655   0.05882  -0.0987  0.0012  1.0000  -4.9249   0.0000   0.0000   0.0000   0.2911
  13.600   1.5140   0.06791   0.06023  -0.0987  0.0012  1.0000  -4.9804   0.0000   0.0000   0.0000   0.2908
  13.700   1.5136   0.06933   0.06172  -0.0988  0.0012  1.0000  -5.0340   0.0000   0.0000   0.0000   0.2907
  13.800   1.5132   0.07076   0.06320  -0.0988  0.0012  1.0000  -5.0876   0.0000   0.0000   0.0000   0.2905
  13.900   1.5127   0.07223   0.06473  -0.0989  0.0012  1.0000  -5.1399   0.0000   0.0000   0.0000   0.2903
  14.000   1.5121   0.07371   0.06626  -0.0990  0.0012  1.0000  -5.1936   0.0000   0.0000   0.0000   0.2902
  14.100   1.5116   0.07521   0.06780  -0.0991  0.0012  1.0000  -5.2475   0.0000   0.0000   0.0000   0.2901
  14.200   1.5109   0.07677   0.06942  -0.0993  0.0012  1.0000  -5.2991   0.0000   0.0000   0.0000   0.2900
  14.300   1.5101   0.07834   0.07104  -0.0995  0.0012  1.0000  -5.3506   0.0000   0.0000   0.0000   0.2900
  14.400   1.5092   0.07993   0.07270  -0.0997  0.0012  1.0000  -5.4015   0.0000   0.0000   0.0000   0.2899
  14.500   1.5081   0.08158   0.07440  -0.0999  0.0012  1.0000  -5.4504   0.0000   0.0000   0.0000   0.2899
  14.600   1.5071   0.08324   0.07611  -0.1002  0.0012  1.0000  -5.4994   0.0000   0.0000   0.0000   0.2899
  14.700   1.5058   0.08496   0.07789  -0.1005  0.0012  1.0000  -5.5459   0.0000   0.0000   0.0000   0.2900
  14.800   1.5045   0.08668   0.07967  -0.1009  0.0012  1.0000  -5.5924   0.0000   0.0000   0.0000   0.2900
  14.900   1.5031   0.08843   0.08148  -0.1012  0.0012  1.0000  -5.6382   0.0000   0.0000   0.0000   0.2901
  15.000   1.5015   0.09023   0.08334  -0.1016  0.0012  1.0000  -5.6819   0.0000   0.0000   0.0000   0.2902


