xflr5 v6.59

 Calculated polar for: SF-10

 1 1 Reynolds number fixed          Mach number fixed         

 xtrf =   1.000 (top)        1.000 (bottom)
 Mach =   0.050     Re =     0.200 e 6     Ncrit =   5.000

  alpha     CL        CD       CDp       Cm    Top Xtr Bot Xtr   Cpmin    Chinge    XCp    
 ------- -------- --------- --------- -------- ------- ------- -------- --------- ---------
  -3.000   0.1592   0.01387   0.00520  -0.0896  0.6366  0.0473  -1.9729   0.0000   0.0000   0.0000   0.8207
  -2.900   0.1693   0.01375   0.00506  -0.0894  0.6320  0.0494  -1.9128   0.0000   0.0000   0.0000   0.7849
  -2.800   0.1797   0.01364   0.00492  -0.0892  0.6271  0.0519  -1.8549   0.0000   0.0000   0.0000   0.7526
  -2.700   0.1900   0.01354   0.00478  -0.0889  0.6223  0.0546  -1.7982   0.0000   0.0000   0.0000   0.7238
  -2.600   0.2002   0.01345   0.00467  -0.0887  0.6177  0.0579  -1.7379   0.0000   0.0000   0.0000   0.6983
  -2.500   0.2105   0.01338   0.00455  -0.0885  0.6135  0.0620  -1.6797   0.0000   0.0000   0.0000   0.6750
  -2.400   0.2209   0.01329   0.00446  -0.0883  0.6093  0.0663  -1.6200   0.0000   0.0000   0.0000   0.6539
  -2.300   0.2313   0.01320   0.00436  -0.0881  0.6048  0.0709  -1.5618   0.0000   0.0000   0.0000   0.6347
  -2.200   0.2416   0.01313   0.00425  -0.0879  0.6003  0.0762  -1.5038   0.0000   0.0000   0.0000   0.6171
  -2.100   0.2518   0.01305   0.00417  -0.0877  0.5961  0.0824  -1.4456   0.0000   0.0000   0.0000   0.6011
  -2.000   0.2621   0.01299   0.00409  -0.0875  0.5923  0.0897  -1.3879   0.0000   0.0000   0.0000   0.5863
  -1.900   0.2725   0.01291   0.00401  -0.0873  0.5883  0.0980  -1.3300   0.0000   0.0000   0.0000   0.5726
  -1.800   0.2829   0.01283   0.00395  -0.0871  0.5843  0.1077  -1.2726   0.0000   0.0000   0.0000   0.5599
  -1.700   0.2932   0.01276   0.00388  -0.0870  0.5803  0.1194  -1.2156   0.0000   0.0000   0.0000   0.5482
  -1.600   0.3034   0.01268   0.00383  -0.0868  0.5766  0.1328  -1.1593   0.0000   0.0000   0.0000   0.5373
  -1.500   0.3136   0.01262   0.00377  -0.0866  0.5731  0.1490  -1.1035   0.0000   0.0000   0.0000   0.5271
  -1.400   0.3238   0.01253   0.00373  -0.0864  0.5697  0.1688  -1.0478   0.0000   0.0000   0.0000   0.5176
  -1.300   0.3341   0.01243   0.00370  -0.0862  0.5660  0.1914  -0.9928   0.0000   0.0000   0.0000   0.5087
  -1.200   0.3442   0.01234   0.00367  -0.0861  0.5623  0.2172  -0.9385   0.0000   0.0000   0.0000   0.5004
  -1.100   0.3543   0.01226   0.00365  -0.0859  0.5587  0.2460  -0.8849   0.0000   0.0000   0.0000   0.4926
  -1.000   0.3642   0.01218   0.00363  -0.0857  0.5553  0.2761  -0.8342   0.0000   0.0000   0.0000   0.4851
  -0.900   0.3741   0.01211   0.00362  -0.0854  0.5523  0.3077  -0.8231   0.0000   0.0000   0.0000   0.4781
  -0.800   0.3842   0.01202   0.00362  -0.0852  0.5490  0.3402  -0.8322   0.0000   0.0000   0.0000   0.4714
  -0.700   0.3942   0.01193   0.00362  -0.0850  0.5457  0.3734  -0.8413   0.0000   0.0000   0.0000   0.4651
  -0.600   0.4040   0.01185   0.00362  -0.0847  0.5424  0.4063  -0.8504   0.0000   0.0000   0.0000   0.4590
  -0.500   0.4138   0.01177   0.00362  -0.0844  0.5393  0.4408  -0.8594   0.0000   0.0000   0.0000   0.4532
  -0.400   0.4233   0.01169   0.00362  -0.0841  0.5364  0.4766  -0.8683   0.0000   0.0000   0.0000   0.4476
  -0.300   0.4326   0.01160   0.00361  -0.0837  0.5336  0.5154  -0.8771   0.0000   0.0000   0.0000   0.4423
  -0.200   0.4417   0.01148   0.00362  -0.0833  0.5309  0.5598  -0.8858   0.0000   0.0000   0.0000   0.4371
  -0.100   0.4503   0.01130   0.00362  -0.0827  0.5279  0.6157  -0.8942   0.0000   0.0000   0.0000   0.4321
   0.000   0.4576   0.01096   0.00365  -0.0816  0.5250  0.7213  -0.9020   0.0000   0.0000   0.0000   0.4268
   0.100   0.5299   0.01068   0.00363  -0.0941  0.5186  1.0000  -0.9491   0.0000   0.0000   0.0000   0.4257
   0.200   0.5395   0.01074   0.00362  -0.0937  0.5159  1.0000  -0.9582   0.0000   0.0000   0.0000   0.4218
   0.300   0.5491   0.01081   0.00361  -0.0934  0.5135  1.0000  -0.9674   0.0000   0.0000   0.0000   0.4180
   0.400   0.5590   0.01085   0.00362  -0.0931  0.5108  1.0000  -0.9770   0.0000   0.0000   0.0000   0.4143
   0.500   0.5689   0.01089   0.00363  -0.0928  0.5081  1.0000  -0.9865   0.0000   0.0000   0.0000   0.4108
   0.600   0.5787   0.01094   0.00364  -0.0925  0.5054  1.0000  -0.9961   0.0000   0.0000   0.0000   0.4074
   0.700   0.5884   0.01100   0.00364  -0.0922  0.5027  1.0000  -1.0056   0.0000   0.0000   0.0000   0.4041
   0.800   0.5981   0.01106   0.00364  -0.0919  0.5001  1.0000  -1.0152   0.0000   0.0000   0.0000   0.4009
   0.900   0.6078   0.01112   0.00365  -0.0915  0.4977  1.0000  -1.0248   0.0000   0.0000   0.0000   0.3978
   1.000   0.6174   0.01120   0.00366  -0.0912  0.4954  1.0000  -1.0344   0.0000   0.0000   0.0000   0.3948
   1.100   0.6273   0.01124   0.00369  -0.0909  0.4929  1.0000  -1.0440   0.0000   0.0000   0.0000   0.3919
   1.200   0.6372   0.01129   0.00371  -0.0907  0.4903  1.0000  -1.0537   0.0000   0.0000   0.0000   0.3891
   1.300   0.6471   0.01135   0.00374  -0.0904  0.4876  1.0000  -1.0633   0.0000   0.0000   0.0000   0.3864
   1.400   0.6569   0.01141   0.00376  -0.0901  0.4851  1.0000  -1.0730   0.0000   0.0000   0.0000   0.3837
   1.500   0.6666   0.01147   0.00379  -0.0898  0.4828  1.0000  -1.0830   0.0000   0.0000   0.0000   0.3812
   1.600   0.6764   0.01154   0.00381  -0.0895  0.4806  1.0000  -1.0931   0.0000   0.0000   0.0000   0.3787
   1.700   0.6861   0.01161   0.00384  -0.0892  0.4786  1.0000  -1.1032   0.0000   0.0000   0.0000   0.3762
   1.800   0.6959   0.01169   0.00387  -0.0889  0.4766  1.0000  -1.1134   0.0000   0.0000   0.0000   0.3739
   1.900   0.7059   0.01174   0.00391  -0.0886  0.4743  1.0000  -1.1236   0.0000   0.0000   0.0000   0.3716
   2.000   0.7158   0.01179   0.00396  -0.0884  0.4719  1.0000  -1.1338   0.0000   0.0000   0.0000   0.3694
   2.100   0.7257   0.01185   0.00400  -0.0881  0.4695  1.0000  -1.1439   0.0000   0.0000   0.0000   0.3672
   2.200   0.7355   0.01192   0.00404  -0.0878  0.4672  1.0000  -1.1541   0.0000   0.0000   0.0000   0.3651
   2.300   0.7453   0.01199   0.00408  -0.0875  0.4650  1.0000  -1.1644   0.0000   0.0000   0.0000   0.3630
   2.400   0.7550   0.01206   0.00411  -0.0873  0.4629  1.0000  -1.1748   0.0000   0.0000   0.0000   0.3610
   2.500   0.7648   0.01214   0.00415  -0.0870  0.4609  1.0000  -1.1855   0.0000   0.0000   0.0000   0.3590
   2.600   0.7746   0.01222   0.00420  -0.0867  0.4591  1.0000  -1.1963   0.0000   0.0000   0.0000   0.3571
   2.700   0.7846   0.01228   0.00426  -0.0864  0.4570  1.0000  -1.2070   0.0000   0.0000   0.0000   0.3553
   2.800   0.7945   0.01234   0.00431  -0.0862  0.4549  1.0000  -1.2177   0.0000   0.0000   0.0000   0.3535
   2.900   0.8045   0.01241   0.00437  -0.0860  0.4527  1.0000  -1.2285   0.0000   0.0000   0.0000   0.3517
   3.000   0.8143   0.01248   0.00443  -0.0857  0.4506  1.0000  -1.2392   0.0000   0.0000   0.0000   0.3500
   3.100   0.8241   0.01255   0.00448  -0.0854  0.4486  1.0000  -1.2500   0.0000   0.0000   0.0000   0.3483
   3.200   0.8339   0.01263   0.00453  -0.0852  0.4466  1.0000  -1.2613   0.0000   0.0000   0.0000   0.3467
   3.300   0.8437   0.01271   0.00461  -0.0849  0.4448  1.0000  -1.2726   0.0000   0.0000   0.0000   0.3450
   3.400   0.8534   0.01280   0.00466  -0.0846  0.4430  1.0000  -1.2839   0.0000   0.0000   0.0000   0.3434
   3.500   0.8633   0.01288   0.00473  -0.0844  0.4411  1.0000  -1.2952   0.0000   0.0000   0.0000   0.3419
   3.600   0.8732   0.01294   0.00480  -0.0841  0.4391  1.0000  -1.3064   0.0000   0.0000   0.0000   0.3404
   3.700   0.8831   0.01301   0.00488  -0.0839  0.4370  1.0000  -1.3177   0.0000   0.0000   0.0000   0.3389
   3.800   0.8930   0.01308   0.00495  -0.0836  0.4350  1.0000  -1.3295   0.0000   0.0000   0.0000   0.3375
   3.900   0.9028   0.01316   0.00502  -0.0834  0.4331  1.0000  -1.3414   0.0000   0.0000   0.0000   0.3361
   4.000   0.9126   0.01324   0.00509  -0.0831  0.4312  1.0000  -1.3532   0.0000   0.0000   0.0000   0.3347
   4.100   0.9223   0.01333   0.00516  -0.0829  0.4294  1.0000  -1.3651   0.0000   0.0000   0.0000   0.3333
   4.200   0.9320   0.01342   0.00523  -0.0826  0.4277  1.0000  -1.3770   0.0000   0.0000   0.0000   0.3320
   4.300   0.9418   0.01352   0.00530  -0.0823  0.4261  1.0000  -1.3895   0.0000   0.0000   0.0000   0.3307
   4.400   0.9516   0.01360   0.00540  -0.0821  0.4243  1.0000  -1.4019   0.0000   0.0000   0.0000   0.3294
   4.500   0.9614   0.01367   0.00550  -0.0818  0.4223  1.0000  -1.4142   0.0000   0.0000   0.0000   0.3281
   4.600   0.9712   0.01375   0.00559  -0.0816  0.4203  1.0000  -1.4268   0.0000   0.0000   0.0000   0.3269
   4.700   0.9809   0.01383   0.00568  -0.0813  0.4184  1.0000  -1.4397   0.0000   0.0000   0.0000   0.3257
   4.800   0.9906   0.01391   0.00577  -0.0811  0.4165  1.0000  -1.4527   0.0000   0.0000   0.0000   0.3245
   4.900   1.0003   0.01400   0.00585  -0.0808  0.4147  1.0000  -1.4659   0.0000   0.0000   0.0000   0.3233
   5.000   1.0099   0.01409   0.00593  -0.0805  0.4129  1.0000  -1.4795   0.0000   0.0000   0.0000   0.3221
   5.100   1.0195   0.01419   0.00602  -0.0803  0.4113  1.0000  -1.4933   0.0000   0.0000   0.0000   0.3210
   5.200   1.0292   0.01429   0.00610  -0.0800  0.4097  1.0000  -1.5079   0.0000   0.0000   0.0000   0.3199
   5.300   1.0389   0.01439   0.00620  -0.0798  0.4080  1.0000  -1.5308   0.0000   0.0000   0.0000   0.3188
   5.400   1.0485   0.01447   0.00631  -0.0795  0.4061  1.0000  -1.5547   0.0000   0.0000   0.0000   0.3177
   5.500   1.0581   0.01455   0.00645  -0.0792  0.4041  1.0000  -1.5789   0.0000   0.0000   0.0000   0.3166
   5.600   1.0676   0.01464   0.00655  -0.0789  0.4022  1.0000  -1.6031   0.0000   0.0000   0.0000   0.3156
   5.700   1.0771   0.01473   0.00666  -0.0787  0.4003  1.0000  -1.6285   0.0000   0.0000   0.0000   0.3145
   5.800   1.0866   0.01482   0.00675  -0.0784  0.3984  1.0000  -1.6542   0.0000   0.0000   0.0000   0.3135
   5.900   1.0960   0.01492   0.00685  -0.0781  0.3967  1.0000  -1.6801   0.0000   0.0000   0.0000   0.3125
   6.000   1.1055   0.01503   0.00695  -0.0778  0.3950  1.0000  -1.7066   0.0000   0.0000   0.0000   0.3114
   6.100   1.1149   0.01514   0.00704  -0.0775  0.3935  1.0000  -1.7342   0.0000   0.0000   0.0000   0.3105
   6.200   1.1243   0.01524   0.00717  -0.0772  0.3916  1.0000  -1.7615   0.0000   0.0000   0.0000   0.3095
   6.300   1.1329   0.01530   0.00727  -0.0767  0.3877  1.0000  -1.7880   0.0000   0.0000   0.0000   0.3084
   6.400   1.1405   0.01535   0.00732  -0.0761  0.3821  1.0000  -1.8141   0.0000   0.0000   0.0000   0.3073
   6.500   1.1475   0.01542   0.00734  -0.0753  0.3759  1.0000  -1.8406   0.0000   0.0000   0.0000   0.3061
   6.600   1.1544   0.01546   0.00739  -0.0746  0.3679  1.0000  -1.8670   0.0000   0.0000   0.0000   0.3049
   6.700   1.1610   0.01556   0.00745  -0.0738  0.3615  1.0000  -1.8930   0.0000   0.0000   0.0000   0.3037
   6.800   1.1683   0.01562   0.00754  -0.0731  0.3538  1.0000  -1.9199   0.0000   0.0000   0.0000   0.3025
   6.900   1.1751   0.01573   0.00761  -0.0724  0.3481  1.0000  -1.9465   0.0000   0.0000   0.0000   0.3014
   7.000   1.1834   0.01583   0.00773  -0.0719  0.3443  1.0000  -1.9764   0.0000   0.0000   0.0000   0.3004
   7.100   1.1916   0.01593   0.00785  -0.0714  0.3403  1.0000  -2.0064   0.0000   0.0000   0.0000   0.2994
   7.200   1.1992   0.01604   0.00796  -0.0708  0.3360  1.0000  -2.0355   0.0000   0.0000   0.0000   0.2984
   7.300   1.2062   0.01616   0.00806  -0.0701  0.3318  1.0000  -2.0640   0.0000   0.0000   0.0000   0.2973
   7.400   1.2141   0.01626   0.00819  -0.0696  0.3265  1.0000  -2.0938   0.0000   0.0000   0.0000   0.2964
   7.500   1.2210   0.01639   0.00831  -0.0688  0.3211  1.0000  -2.1230   0.0000   0.0000   0.0000   0.2953
   7.600   1.2277   0.01652   0.00843  -0.0681  0.3156  1.0000  -2.1527   0.0000   0.0000   0.0000   0.2943
   7.700   1.2336   0.01667   0.00856  -0.0672  0.3072  1.0000  -2.1813   0.0000   0.0000   0.0000   0.2931
   7.800   1.2386   0.01683   0.00869  -0.0662  0.2968  1.0000  -2.2085   0.0000   0.0000   0.0000   0.2919
   7.900   1.2425   0.01704   0.00885  -0.0650  0.2849  1.0000  -2.2338   0.0000   0.0000   0.0000   0.2907
   8.000   1.2460   0.01726   0.00902  -0.0638  0.2725  1.0000  -2.2584   0.0000   0.0000   0.0000   0.2894
   8.100   1.2496   0.01749   0.00920  -0.0626  0.2621  1.0000  -2.2833   0.0000   0.0000   0.0000   0.2881
   8.200   1.2542   0.01769   0.00938  -0.0615  0.2535  1.0000  -2.3101   0.0000   0.0000   0.0000   0.2869
   8.300   1.2576   0.01791   0.00956  -0.0602  0.2453  1.0000  -2.3359   0.0000   0.0000   0.0000   0.2856
   8.400   1.2597   0.01814   0.00976  -0.0587  0.2370  1.0000  -2.3595   0.0000   0.0000   0.0000   0.2842
   8.500   1.2619   0.01839   0.00997  -0.0573  0.2281  1.0000  -2.3830   0.0000   0.0000   0.0000   0.2828
   8.600   1.2636   0.01866   0.01021  -0.0558  0.2191  1.0000  -2.4058   0.0000   0.0000   0.0000   0.2814
   8.700   1.2650   0.01896   0.01046  -0.0542  0.2100  1.0000  -2.4278   0.0000   0.0000   0.0000   0.2800
   8.800   1.2653   0.01931   0.01076  -0.0526  0.1991  1.0000  -2.4476   0.0000   0.0000   0.0000   0.2786
   8.900   1.2636   0.01974   0.01112  -0.0507  0.1859  1.0000  -2.4638   0.0000   0.0000   0.0000   0.2770
   9.000   1.2608   0.02025   0.01153  -0.0487  0.1717  1.0000  -2.4774   0.0000   0.0000   0.0000   0.2753
   9.100   1.2573   0.02080   0.01199  -0.0467  0.1574  1.0000  -2.4896   0.0000   0.0000   0.0000   0.2737
   9.200   1.2536   0.02138   0.01249  -0.0447  0.1437  1.0000  -2.5013   0.0000   0.0000   0.0000   0.2721
   9.300   1.2502   0.02198   0.01301  -0.0428  0.1309  1.0000  -2.5132   0.0000   0.0000   0.0000   0.2705
   9.400   1.2473   0.02256   0.01353  -0.0410  0.1198  1.0000  -2.5268   0.0000   0.0000   0.0000   0.2690
   9.500   1.2457   0.02311   0.01403  -0.0395  0.1111  1.0000  -2.5432   0.0000   0.0000   0.0000   0.2677
   9.600   1.2455   0.02360   0.01450  -0.0382  0.1047  1.0000  -2.5780   0.0000   0.0000   0.0000   0.2665
   9.700   1.2453   0.02410   0.01499  -0.0369  0.0989  1.0000  -2.6231   0.0000   0.0000   0.0000   0.2653
   9.800   1.2455   0.02460   0.01547  -0.0357  0.0934  1.0000  -2.6701   0.0000   0.0000   0.0000   0.2642
   9.900   1.2456   0.02512   0.01598  -0.0346  0.0887  1.0000  -2.7163   0.0000   0.0000   0.0000   0.2631
  10.000   1.2460   0.02563   0.01651  -0.0335  0.0842  1.0000  -2.7653   0.0000   0.0000   0.0000   0.2620
  10.100   1.2463   0.02617   0.01705  -0.0324  0.0801  1.0000  -2.8129   0.0000   0.0000   0.0000   0.2610
  10.200   1.2467   0.02671   0.01759  -0.0314  0.0763  1.0000  -2.8608   0.0000   0.0000   0.0000   0.2600
  10.300   1.2469   0.02729   0.01817  -0.0305  0.0724  1.0000  -2.9074   0.0000   0.0000   0.0000   0.2591
  10.400   1.2457   0.02797   0.01884  -0.0294  0.0676  1.0000  -2.9473   0.0000   0.0000   0.0000   0.2581
  10.500   1.2440   0.02870   0.01956  -0.0284  0.0620  1.0000  -2.9849   0.0000   0.0000   0.0000   0.2571
  10.600   1.2418   0.02950   0.02034  -0.0274  0.0563  1.0000  -3.0194   0.0000   0.0000   0.0000   0.2562
  10.700   1.2393   0.03034   0.02116  -0.0265  0.0507  1.0000  -3.0528   0.0000   0.0000   0.0000   0.2553
  10.800   1.2366   0.03123   0.02204  -0.0256  0.0451  1.0000  -3.0846   0.0000   0.0000   0.0000   0.2545
  10.900   1.2306   0.03240   0.02316  -0.0246  0.0365  1.0000  -3.0995   0.0000   0.0000   0.0000   0.2536
  11.000   1.2220   0.03383   0.02452  -0.0237  0.0259  1.0000  -3.1013   0.0000   0.0000   0.0000   0.2527
  11.100   1.2143   0.03526   0.02591  -0.0228  0.0165  1.0000  -3.1059   0.0000   0.0000   0.0000   0.2520
  11.200   1.2082   0.03661   0.02724  -0.0222  0.0087  1.0000  -3.1181   0.0000   0.0000   0.0000   0.2514
  11.300   1.2035   0.03789   0.02853  -0.0217  0.0045  1.0000  -3.1363   0.0000   0.0000   0.0000   0.2508
  11.400   1.2016   0.03896   0.02963  -0.0212  0.0035  1.0000  -3.1689   0.0000   0.0000   0.0000   0.2503
  11.500   1.2020   0.03983   0.03053  -0.0209  0.0033  1.0000  -3.2143   0.0000   0.0000   0.0000   0.2498
  11.600   1.2023   0.04073   0.03147  -0.0206  0.0032  1.0000  -3.2591   0.0000   0.0000   0.0000   0.2494
  11.700   1.2022   0.04168   0.03246  -0.0204  0.0030  1.0000  -3.3021   0.0000   0.0000   0.0000   0.2490
  11.800   1.2024   0.04261   0.03344  -0.0201  0.0029  1.0000  -3.3469   0.0000   0.0000   0.0000   0.2486
  11.900   1.2026   0.04356   0.03442  -0.0199  0.0028  1.0000  -3.3917   0.0000   0.0000   0.0000   0.2482
  12.000   1.2029   0.04451   0.03542  -0.0197  0.0027  1.0000  -3.4370   0.0000   0.0000   0.0000   0.2478
  12.100   1.2031   0.04549   0.03644  -0.0195  0.0027  1.0000  -3.4818   0.0000   0.0000   0.0000   0.2475
  12.200   1.2032   0.04648   0.03747  -0.0194  0.0026  1.0000  -3.5267   0.0000   0.0000   0.0000   0.2472
  12.300   1.2033   0.04748   0.03852  -0.0192  0.0026  1.0000  -3.5714   0.0000   0.0000   0.0000   0.2469
  12.400   1.2033   0.04852   0.03960  -0.0191  0.0025  1.0000  -3.6152   0.0000   0.0000   0.0000   0.2466
  12.500   1.2035   0.04953   0.04065  -0.0190  0.0025  1.0000  -3.6610   0.0000   0.0000   0.0000   0.2463
  12.600   1.2036   0.05057   0.04175  -0.0189  0.0025  1.0000  -3.7055   0.0000   0.0000   0.0000   0.2460
  12.700   1.2037   0.05163   0.04285  -0.0189  0.0025  1.0000  -3.7506   0.0000   0.0000   0.0000   0.2458
  12.800   1.2037   0.05269   0.04396  -0.0188  0.0024  1.0000  -3.7956   0.0000   0.0000   0.0000   0.2456
  12.900   1.2037   0.05378   0.04510  -0.0188  0.0024  1.0000  -3.8401   0.0000   0.0000   0.0000   0.2453
  13.000   1.2037   0.05487   0.04623  -0.0188  0.0024  1.0000  -3.8849   0.0000   0.0000   0.0000   0.2451
  13.100   1.2036   0.05599   0.04739  -0.0188  0.0024  1.0000  -3.9294   0.0000   0.0000   0.0000   0.2449
  13.200   1.2034   0.05712   0.04857  -0.0188  0.0024  1.0000  -3.9733   0.0000   0.0000   0.0000   0.2448
  13.300   1.2033   0.05826   0.04975  -0.0188  0.0023  1.0000  -4.0178   0.0000   0.0000   0.0000   0.2446
  13.400   1.2030   0.05942   0.05096  -0.0189  0.0023  1.0000  -4.0613   0.0000   0.0000   0.0000   0.2444
  13.500   1.2027   0.06060   0.05219  -0.0189  0.0023  1.0000  -4.1047   0.0000   0.0000   0.0000   0.2443
  13.600   1.2025   0.06177   0.05340  -0.0190  0.0023  1.0000  -4.1485   0.0000   0.0000   0.0000   0.2442
  13.700   1.2022   0.06297   0.05465  -0.0191  0.0023  1.0000  -4.1917   0.0000   0.0000   0.0000   0.2440
  13.800   1.2018   0.06419   0.05591  -0.0192  0.0023  1.0000  -4.2347   0.0000   0.0000   0.0000   0.2439
  13.900   1.2016   0.06541   0.05718  -0.0193  0.0023  1.0000  -4.2782   0.0000   0.0000   0.0000   0.2438
  14.000   1.2012   0.06665   0.05847  -0.0195  0.0022  1.0000  -4.3208   0.0000   0.0000   0.0000   0.2438
  14.100   1.2007   0.06791   0.05977  -0.0196  0.0022  1.0000  -4.3633   0.0000   0.0000   0.0000   0.2437
  14.200   1.2004   0.06917   0.06107  -0.0198  0.0022  1.0000  -4.4062   0.0000   0.0000   0.0000   0.2436
  14.300   1.2000   0.07044   0.06239  -0.0200  0.0022  1.0000  -4.4488   0.0000   0.0000   0.0000   0.2436
  14.400   1.1995   0.07173   0.06373  -0.0202  0.0022  1.0000  -4.4906   0.0000   0.0000   0.0000   0.2436
  14.500   1.1990   0.07303   0.06508  -0.0204  0.0022  1.0000  -4.5328   0.0000   0.0000   0.0000   0.2435
  14.600   1.1986   0.07433   0.06643  -0.0206  0.0022  1.0000  -4.5749   0.0000   0.0000   0.0000   0.2435
  14.700   1.1980   0.07567   0.06781  -0.0208  0.0022  1.0000  -4.6163   0.0000   0.0000   0.0000   0.2435
  14.800   1.1975   0.07701   0.06920  -0.0211  0.0022  1.0000  -4.6577   0.0000   0.0000   0.0000   0.2436
  14.900   1.1970   0.07834   0.07059  -0.0214  0.0022  1.0000  -4.7000   0.0000   0.0000   0.0000   0.2436
  15.000   1.1965   0.07971   0.07200  -0.0216  0.0022  1.0000  -4.7411   0.0000   0.0000   0.0000   0.2436
  15.100   1.1959   0.08109   0.07344  -0.0219  0.0022  1.0000  -4.7815   0.0000   0.0000   0.0000   0.2437
  15.200   1.1953   0.08247   0.07486  -0.0223  0.0021  1.0000  -4.8224   0.0000   0.0000   0.0000   0.2437
  15.300   1.1948   0.08386   0.07630  -0.0226  0.0021  1.0000  -4.8632   0.0000   0.0000   0.0000   0.2438
  15.400   1.1941   0.08528   0.07776  -0.0229  0.0021  1.0000  -4.9031   0.0000   0.0000   0.0000   0.2439
  15.500   1.1935   0.08670   0.07924  -0.0233  0.0021  1.0000  -4.9427   0.0000   0.0000   0.0000   0.2440
  15.600   1.1929   0.08813   0.08071  -0.0236  0.0021  1.0000  -4.9827   0.0000   0.0000   0.0000   0.2441
  15.700   1.1922   0.08957   0.08220  -0.0240  0.0021  1.0000  -5.0222   0.0000   0.0000   0.0000   0.2443
  15.800   1.1914   0.09105   0.08373  -0.0244  0.0021  1.0000  -5.0603   0.0000   0.0000   0.0000   0.2444
  15.900   1.1907   0.09252   0.08525  -0.0249  0.0021  1.0000  -5.0989   0.0000   0.0000   0.0000   0.2446
  16.000   1.1901   0.09399   0.08676  -0.0253  0.0021  1.0000  -5.1377   0.0000   0.0000   0.0000   0.2448
  16.100   1.1893   0.09549   0.08831  -0.0258  0.0021  1.0000  -5.1749   0.0000   0.0000   0.0000   0.2450
  16.200   1.1884   0.09701   0.08989  -0.0262  0.0021  1.0000  -5.2115   0.0000   0.0000   0.0000   0.2452
  16.300   1.1876   0.09853   0.09145  -0.0267  0.0021  1.0000  -5.2484   0.0000   0.0000   0.0000   0.2454
  16.400   1.1868   0.10005   0.09302  -0.0272  0.0021  1.0000  -5.2851   0.0000   0.0000   0.0000   0.2456
  16.500   1.1859   0.10161   0.09463  -0.0278  0.0021  1.0000  -5.3203   0.0000   0.0000   0.0000   0.2459
  16.600   1.1849   0.10318   0.09625  -0.0283  0.0021  1.0000  -5.3549   0.0000   0.0000   0.0000   0.2462
  16.700   1.1840   0.10475   0.09787  -0.0289  0.0021  1.0000  -5.3894   0.0000   0.0000   0.0000   0.2465
  16.800   1.1830   0.10634   0.09950  -0.0295  0.0021  1.0000  -5.4232   0.0000   0.0000   0.0000   0.2468
  16.900   1.1819   0.10795   0.10117  -0.0301  0.0021  1.0000  -5.4551   0.0000   0.0000   0.0000   0.2471
  17.000   1.1808   0.10957   0.10283  -0.0307  0.0021  1.0000  -5.4871   0.0000   0.0000   0.0000   0.2475


