xflr5 v6.59

 Calculated polar for: SF-14

 1 1 Reynolds number fixed          Mach number fixed         

 xtrf =   1.000 (top)        1.000 (bottom)
 Mach =   0.050     Re =     0.200 e 6     Ncrit =   5.000

  alpha     CL        CD       CDp       Cm    Top Xtr Bot Xtr   Cpmin    Chinge    XCp    
 ------- -------- --------- --------- -------- ------- ------- -------- --------- ---------
  -3.000   0.4355   0.01441   0.00620  -0.1666  0.7221  0.0432  -1.9547   0.0000   0.0000   0.0000   0.6370
  -2.900   0.4457   0.01426   0.00607  -0.1665  0.7189  0.0444  -1.8899   0.0000   0.0000   0.0000   0.6277
  -2.800   0.4562   0.01417   0.00597  -0.1664  0.7158  0.0461  -1.8233   0.0000   0.0000   0.0000   0.6186
  -2.700   0.4668   0.01407   0.00582  -0.1663  0.7128  0.0482  -1.7606   0.0000   0.0000   0.0000   0.6099
  -2.600   0.4776   0.01395   0.00564  -0.1662  0.7099  0.0501  -1.7002   0.0000   0.0000   0.0000   0.6014
  -2.500   0.4885   0.01385   0.00550  -0.1662  0.7072  0.0518  -1.6346   0.0000   0.0000   0.0000   0.5934
  -2.400   0.4996   0.01374   0.00536  -0.1662  0.7047  0.0537  -1.5718   0.0000   0.0000   0.0000   0.5856
  -2.300   0.5102   0.01364   0.00520  -0.1661  0.7019  0.0558  -1.5133   0.0000   0.0000   0.0000   0.5782
  -2.200   0.5205   0.01354   0.00511  -0.1660  0.6988  0.0578  -1.4518   0.0000   0.0000   0.0000   0.5713
  -2.100   0.5310   0.01348   0.00503  -0.1659  0.6957  0.0605  -1.3892   0.0000   0.0000   0.0000   0.5646
  -2.000   0.5417   0.01341   0.00492  -0.1658  0.6928  0.0636  -1.3298   0.0000   0.0000   0.0000   0.5581
  -1.900   0.5524   0.01333   0.00483  -0.1657  0.6900  0.0662  -1.2721   0.0000   0.0000   0.0000   0.5519
  -1.800   0.5633   0.01326   0.00473  -0.1657  0.6874  0.0693  -1.2201   0.0000   0.0000   0.0000   0.5458
  -1.700   0.5743   0.01320   0.00462  -0.1656  0.6850  0.0724  -1.1677   0.0000   0.0000   0.0000   0.5399
  -1.600   0.5846   0.01314   0.00458  -0.1655  0.6821  0.0762  -1.1162   0.0000   0.0000   0.0000   0.5345
  -1.500   0.5950   0.01309   0.00452  -0.1654  0.6790  0.0801  -1.0656   0.0000   0.0000   0.0000   0.5291
  -1.400   0.6055   0.01304   0.00446  -0.1653  0.6761  0.0843  -1.0146   0.0000   0.0000   0.0000   0.5240
  -1.300   0.6161   0.01299   0.00440  -0.1652  0.6733  0.0887  -0.9642   0.0000   0.0000   0.0000   0.5190
  -1.200   0.6268   0.01295   0.00432  -0.1651  0.6706  0.0939  -0.9444   0.0000   0.0000   0.0000   0.5141
  -1.100   0.6376   0.01291   0.00427  -0.1651  0.6681  0.0992  -0.9527   0.0000   0.0000   0.0000   0.5094
  -1.000   0.6484   0.01288   0.00422  -0.1650  0.6657  0.1051  -0.9610   0.0000   0.0000   0.0000   0.5048
  -0.900   0.6586   0.01285   0.00419  -0.1649  0.6628  0.1114  -0.9689   0.0000   0.0000   0.0000   0.5005
  -0.800   0.6690   0.01281   0.00418  -0.1648  0.6599  0.1181  -0.9769   0.0000   0.0000   0.0000   0.4963
  -0.700   0.6794   0.01278   0.00415  -0.1647  0.6570  0.1255  -0.9850   0.0000   0.0000   0.0000   0.4922
  -0.600   0.6899   0.01276   0.00412  -0.1646  0.6543  0.1336  -0.9932   0.0000   0.0000   0.0000   0.4882
  -0.500   0.7006   0.01274   0.00409  -0.1645  0.6518  0.1428  -1.0015   0.0000   0.0000   0.0000   0.4844
  -0.400   0.7113   0.01272   0.00407  -0.1645  0.6494  0.1528  -1.0098   0.0000   0.0000   0.0000   0.4806
  -0.300   0.7218   0.01270   0.00406  -0.1644  0.6470  0.1636  -1.0180   0.0000   0.0000   0.0000   0.4770
  -0.200   0.7320   0.01268   0.00407  -0.1643  0.6442  0.1755  -1.0259   0.0000   0.0000   0.0000   0.4735
  -0.100   0.7423   0.01266   0.00407  -0.1641  0.6415  0.1886  -1.0340   0.0000   0.0000   0.0000   0.4701
   0.000   0.7526   0.01264   0.00407  -0.1640  0.6388  0.2032  -1.0424   0.0000   0.0000   0.0000   0.4668
   0.100   0.7630   0.01262   0.00407  -0.1639  0.6362  0.2192  -1.0509   0.0000   0.0000   0.0000   0.4635
   0.200   0.7735   0.01260   0.00407  -0.1638  0.6337  0.2371  -1.0594   0.0000   0.0000   0.0000   0.4604
   0.300   0.7841   0.01258   0.00407  -0.1638  0.6315  0.2573  -1.0680   0.0000   0.0000   0.0000   0.4573
   0.500   0.8044   0.01252   0.00413  -0.1635  0.6264  0.3073  -1.0845   0.0000   0.0000   0.0000   0.4514
   0.600   0.8144   0.01246   0.00416  -0.1634  0.6238  0.3416  -1.0927   0.0000   0.0000   0.0000   0.4487
   0.700   0.8243   0.01236   0.00420  -0.1633  0.6212  0.3939  -1.1009   0.0000   0.0000   0.0000   0.4459
   0.800   0.8334   0.01213   0.00427  -0.1630  0.6188  0.5130  -1.1087   0.0000   0.0000   0.0000   0.4433
   1.100   0.8654   0.01144   0.00429  -0.1624  0.6123  1.0000  -1.1354   0.0000   0.0000   0.0000   0.4350
   1.200   0.8754   0.01150   0.00432  -0.1622  0.6097  1.0000  -1.1439   0.0000   0.0000   0.0000   0.4325
   1.300   0.8856   0.01156   0.00435  -0.1620  0.6071  1.0000  -1.1525   0.0000   0.0000   0.0000   0.4301
   1.400   0.8958   0.01162   0.00437  -0.1619  0.6046  1.0000  -1.1612   0.0000   0.0000   0.0000   0.4277
   1.500   0.9061   0.01168   0.00440  -0.1617  0.6022  1.0000  -1.1699   0.0000   0.0000   0.0000   0.4253
   1.600   0.9164   0.01175   0.00442  -0.1616  0.6000  1.0000  -1.1787   0.0000   0.0000   0.0000   0.4230
   1.700   0.9269   0.01181   0.00443  -0.1615  0.5979  1.0000  -1.1876   0.0000   0.0000   0.0000   0.4208
   1.800   0.9374   0.01189   0.00445  -0.1614  0.5960  1.0000  -1.1966   0.0000   0.0000   0.0000   0.4186
   1.900   0.9474   0.01195   0.00450  -0.1612  0.5936  1.0000  -1.2051   0.0000   0.0000   0.0000   0.4165
   2.000   0.9573   0.01201   0.00455  -0.1610  0.5911  1.0000  -1.2136   0.0000   0.0000   0.0000   0.4144
   2.100   0.9674   0.01208   0.00459  -0.1608  0.5887  1.0000  -1.2222   0.0000   0.0000   0.0000   0.4123
   2.200   0.9774   0.01214   0.00463  -0.1607  0.5863  1.0000  -1.2312   0.0000   0.0000   0.0000   0.4103
   2.300   0.9876   0.01221   0.00467  -0.1605  0.5841  1.0000  -1.2402   0.0000   0.0000   0.0000   0.4083
   2.400   0.9978   0.01229   0.00470  -0.1603  0.5820  1.0000  -1.2494   0.0000   0.0000   0.0000   0.4064
   2.500   1.0082   0.01236   0.00474  -0.1602  0.5801  1.0000  -1.2586   0.0000   0.0000   0.0000   0.4045
   2.600   1.0183   0.01244   0.00479  -0.1601  0.5780  1.0000  -1.2676   0.0000   0.0000   0.0000   0.4026
   2.700   1.0281   0.01250   0.00486  -0.1598  0.5757  1.0000  -1.2763   0.0000   0.0000   0.0000   0.4008
   2.800   1.0379   0.01257   0.00492  -0.1596  0.5734  1.0000  -1.2851   0.0000   0.0000   0.0000   0.3990
   2.900   1.0478   0.01265   0.00498  -0.1594  0.5711  1.0000  -1.2939   0.0000   0.0000   0.0000   0.3972
   3.000   1.0577   0.01272   0.00507  -0.1592  0.5690  1.0000  -1.3029   0.0000   0.0000   0.0000   0.3955
   3.100   1.0677   0.01280   0.00512  -0.1591  0.5669  1.0000  -1.3122   0.0000   0.0000   0.0000   0.3938
   3.200   1.0778   0.01288   0.00517  -0.1589  0.5649  1.0000  -1.3217   0.0000   0.0000   0.0000   0.3921
   3.300   1.0881   0.01296   0.00523  -0.1588  0.5631  1.0000  -1.3313   0.0000   0.0000   0.0000   0.3904
   3.400   1.0978   0.01304   0.00530  -0.1586  0.5610  1.0000  -1.3403   0.0000   0.0000   0.0000   0.3888
   3.500   1.1073   0.01311   0.00539  -0.1583  0.5587  1.0000  -1.3492   0.0000   0.0000   0.0000   0.3872
   3.600   1.1169   0.01319   0.00547  -0.1581  0.5565  1.0000  -1.3582   0.0000   0.0000   0.0000   0.3856
   3.700   1.1266   0.01327   0.00554  -0.1578  0.5544  1.0000  -1.3673   0.0000   0.0000   0.0000   0.3841
   3.800   1.1364   0.01335   0.00562  -0.1576  0.5523  1.0000  -1.3765   0.0000   0.0000   0.0000   0.3826
   3.900   1.1462   0.01343   0.00569  -0.1574  0.5504  1.0000  -1.3862   0.0000   0.0000   0.0000   0.3811
   4.000   1.1562   0.01352   0.00578  -0.1572  0.5485  1.0000  -1.3959   0.0000   0.0000   0.0000   0.3796
   4.100   1.1663   0.01361   0.00585  -0.1571  0.5468  1.0000  -1.4058   0.0000   0.0000   0.0000   0.3782
   4.200   1.1758   0.01370   0.00594  -0.1568  0.5447  1.0000  -1.4151   0.0000   0.0000   0.0000   0.3767
   4.300   1.1850   0.01378   0.00605  -0.1565  0.5425  1.0000  -1.4242   0.0000   0.0000   0.0000   0.3753
   4.400   1.1943   0.01386   0.00614  -0.1562  0.5404  1.0000  -1.4333   0.0000   0.0000   0.0000   0.3739
   4.500   1.2037   0.01395   0.00624  -0.1560  0.5383  1.0000  -1.4426   0.0000   0.0000   0.0000   0.3725
   4.600   1.2132   0.01404   0.00633  -0.1557  0.5363  1.0000  -1.4523   0.0000   0.0000   0.0000   0.3711
   4.700   1.2229   0.01413   0.00642  -0.1555  0.5344  1.0000  -1.4622   0.0000   0.0000   0.0000   0.3698
   4.800   1.2326   0.01422   0.00650  -0.1553  0.5326  1.0000  -1.4722   0.0000   0.0000   0.0000   0.3685
   4.900   1.2425   0.01432   0.00658  -0.1551  0.5309  1.0000  -1.4823   0.0000   0.0000   0.0000   0.3672
   5.000   1.2519   0.01441   0.00669  -0.1548  0.5291  1.0000  -1.4920   0.0000   0.0000   0.0000   0.3659
   5.100   1.2608   0.01450   0.00681  -0.1545  0.5269  1.0000  -1.5012   0.0000   0.0000   0.0000   0.3646
   5.200   1.2697   0.01460   0.00695  -0.1541  0.5248  1.0000  -1.5105   0.0000   0.0000   0.0000   0.3633
   5.300   1.2788   0.01469   0.00707  -0.1538  0.5227  1.0000  -1.5203   0.0000   0.0000   0.0000   0.3621
   5.400   1.2879   0.01478   0.00718  -0.1535  0.5207  1.0000  -1.5303   0.0000   0.0000   0.0000   0.3608
   5.500   1.2973   0.01488   0.00728  -0.1532  0.5189  1.0000  -1.5403   0.0000   0.0000   0.0000   0.3596
   5.600   1.3067   0.01498   0.00738  -0.1530  0.5171  1.0000  -1.5505   0.0000   0.0000   0.0000   0.3584
   5.700   1.3164   0.01509   0.00748  -0.1527  0.5155  1.0000  -1.5609   0.0000   0.0000   0.0000   0.3573
   5.800   1.3259   0.01519   0.00759  -0.1525  0.5138  1.0000  -1.5713   0.0000   0.0000   0.0000   0.3561
   5.900   1.3342   0.01529   0.00774  -0.1520  0.5117  1.0000  -1.5808   0.0000   0.0000   0.0000   0.3549
   6.000   1.3427   0.01539   0.00788  -0.1516  0.5096  1.0000  -1.5905   0.0000   0.0000   0.0000   0.3537
   6.100   1.3513   0.01550   0.00801  -0.1512  0.5076  1.0000  -1.6004   0.0000   0.0000   0.0000   0.3526
   6.200   1.3600   0.01560   0.00814  -0.1508  0.5056  1.0000  -1.6133   0.0000   0.0000   0.0000   0.3514
   6.300   1.3689   0.01571   0.00829  -0.1505  0.5038  1.0000  -1.6580   0.0000   0.0000   0.0000   0.3503
   6.400   1.3780   0.01581   0.00841  -0.1502  0.5020  1.0000  -1.7035   0.0000   0.0000   0.0000   0.3492
   6.500   1.3873   0.01593   0.00852  -0.1499  0.5003  1.0000  -1.7499   0.0000   0.0000   0.0000   0.3481
   6.600   1.3970   0.01604   0.00864  -0.1497  0.4988  1.0000  -1.7976   0.0000   0.0000   0.0000   0.3471
   6.700   1.4047   0.01615   0.00881  -0.1491  0.4967  1.0000  -1.8435   0.0000   0.0000   0.0000   0.3459
   6.800   1.4126   0.01626   0.00897  -0.1486  0.4947  1.0000  -1.8920   0.0000   0.0000   0.0000   0.3448
   6.900   1.4205   0.01638   0.00913  -0.1481  0.4927  1.0000  -1.9522   0.0000   0.0000   0.0000   0.3437
   7.000   1.4281   0.01649   0.00927  -0.1475  0.4902  1.0000  -2.0482   0.0000   0.0000   0.0000   0.3426
   7.100   1.4346   0.01658   0.00935  -0.1466  0.4863  1.0000  -2.1409   0.0000   0.0000   0.0000   0.3414
   7.200   1.4398   0.01668   0.00943  -0.1455  0.4816  1.0000  -2.2282   0.0000   0.0000   0.0000   0.3401
   7.300   1.4423   0.01677   0.00956  -0.1439  0.4757  1.0000  -2.3016   0.0000   0.0000   0.0000   0.3386
   7.400   1.4447   0.01686   0.00962  -0.1423  0.4699  1.0000  -2.3761   0.0000   0.0000   0.0000   0.3372
   7.500   1.4455   0.01696   0.00974  -0.1403  0.4640  1.0000  -2.4420   0.0000   0.0000   0.0000   0.3356
   7.600   1.4446   0.01708   0.00985  -0.1381  0.4565  1.0000  -2.4967   0.0000   0.0000   0.0000   0.3339
   7.700   1.4450   0.01722   0.00998  -0.1361  0.4494  1.0000  -2.5605   0.0000   0.0000   0.0000   0.3324
   7.800   1.4451   0.01737   0.01012  -0.1341  0.4417  1.0000  -2.6240   0.0000   0.0000   0.0000   0.3309
   7.900   1.4455   0.01755   0.01028  -0.1322  0.4339  1.0000  -2.6887   0.0000   0.0000   0.0000   0.3294
   8.000   1.4455   0.01775   0.01046  -0.1302  0.4261  1.0000  -2.7518   0.0000   0.0000   0.0000   0.3279
   8.100   1.4465   0.01796   0.01066  -0.1285  0.4183  1.0000  -2.8206   0.0000   0.0000   0.0000   0.3265
   8.200   1.4476   0.01818   0.01086  -0.1269  0.4112  1.0000  -2.8906   0.0000   0.0000   0.0000   0.3251
   8.300   1.4494   0.01840   0.01108  -0.1253  0.4036  1.0000  -2.9643   0.0000   0.0000   0.0000   0.3238
   8.400   1.4495   0.01867   0.01132  -0.1236  0.3961  1.0000  -3.0296   0.0000   0.0000   0.0000   0.3224
   8.500   1.4509   0.01893   0.01158  -0.1220  0.3871  1.0000  -3.1013   0.0000   0.0000   0.0000   0.3211
   8.600   1.4514   0.01923   0.01186  -0.1204  0.3785  1.0000  -3.1689   0.0000   0.0000   0.0000   0.3197
   8.700   1.4515   0.01956   0.01216  -0.1187  0.3696  1.0000  -3.2342   0.0000   0.0000   0.0000   0.3184
   8.800   1.4520   0.01989   0.01247  -0.1171  0.3600  1.0000  -3.3020   0.0000   0.0000   0.0000   0.3171
   8.900   1.4518   0.02027   0.01282  -0.1155  0.3502  1.0000  -3.3658   0.0000   0.0000   0.0000   0.3158
   9.000   1.4510   0.02068   0.01319  -0.1138  0.3397  1.0000  -3.4264   0.0000   0.0000   0.0000   0.3146
   9.100   1.4495   0.02114   0.01361  -0.1120  0.3287  1.0000  -3.4821   0.0000   0.0000   0.0000   0.3132
   9.200   1.4475   0.02165   0.01407  -0.1102  0.3162  1.0000  -3.5358   0.0000   0.0000   0.0000   0.3120
   9.300   1.4447   0.02221   0.01458  -0.1084  0.3027  1.0000  -3.5843   0.0000   0.0000   0.0000   0.3107
   9.400   1.4410   0.02285   0.01515  -0.1065  0.2884  1.0000  -3.6268   0.0000   0.0000   0.0000   0.3094
   9.500   1.4366   0.02356   0.01578  -0.1046  0.2731  1.0000  -3.6654   0.0000   0.0000   0.0000   0.3081
   9.600   1.4316   0.02433   0.01649  -0.1027  0.2581  1.0000  -3.7019   0.0000   0.0000   0.0000   0.3068
   9.700   1.4261   0.02517   0.01725  -0.1008  0.2423  1.0000  -3.7332   0.0000   0.0000   0.0000   0.3056
   9.800   1.4201   0.02607   0.01807  -0.0989  0.2260  1.0000  -3.7612   0.0000   0.0000   0.0000   0.3044
   9.900   1.4105   0.02725   0.01911  -0.0967  0.2048  1.0000  -3.7666   0.0000   0.0000   0.0000   0.3032
  10.000   1.3993   0.02858   0.02030  -0.0945  0.1817  1.0000  -3.7610   0.0000   0.0000   0.0000   0.3020
  10.100   1.3887   0.02994   0.02153  -0.0925  0.1595  1.0000  -3.7590   0.0000   0.0000   0.0000   0.3009
  10.200   1.3793   0.03130   0.02276  -0.0907  0.1394  1.0000  -3.7629   0.0000   0.0000   0.0000   0.2998
  10.300   1.3714   0.03260   0.02396  -0.0891  0.1223  1.0000  -3.7756   0.0000   0.0000   0.0000   0.2989
  10.400   1.3656   0.03378   0.02507  -0.0878  0.1087  1.0000  -3.8015   0.0000   0.0000   0.0000   0.2980
  10.500   1.3619   0.03484   0.02609  -0.0867  0.0985  1.0000  -3.8396   0.0000   0.0000   0.0000   0.2972
  10.600   1.3593   0.03584   0.02707  -0.0857  0.0899  1.0000  -3.8845   0.0000   0.0000   0.0000   0.2964
  10.700   1.3572   0.03683   0.02803  -0.0848  0.0825  1.0000  -3.9321   0.0000   0.0000   0.0000   0.2957
  10.800   1.3547   0.03787   0.02905  -0.0839  0.0749  1.0000  -3.9774   0.0000   0.0000   0.0000   0.2949
  10.900   1.3521   0.03894   0.03010  -0.0831  0.0674  1.0000  -4.0218   0.0000   0.0000   0.0000   0.2942
  11.000   1.3494   0.04005   0.03118  -0.0823  0.0602  1.0000  -4.0648   0.0000   0.0000   0.0000   0.2936
  11.100   1.3469   0.04116   0.03227  -0.0815  0.0534  1.0000  -4.1091   0.0000   0.0000   0.0000   0.2929
  11.200   1.3444   0.04229   0.03338  -0.0808  0.0471  1.0000  -4.1535   0.0000   0.0000   0.0000   0.2923
  11.300   1.3425   0.04341   0.03448  -0.0801  0.0412  1.0000  -4.2009   0.0000   0.0000   0.0000   0.2917
  11.400   1.3409   0.04450   0.03556  -0.0796  0.0363  1.0000  -4.2508   0.0000   0.0000   0.0000   0.2912
  11.500   1.3401   0.04554   0.03660  -0.0790  0.0324  1.0000  -4.3050   0.0000   0.0000   0.0000   0.2906
  11.600   1.3404   0.04649   0.03757  -0.0785  0.0298  1.0000  -4.3661   0.0000   0.0000   0.0000   0.2901
  11.700   1.3410   0.04744   0.03854  -0.0781  0.0276  1.0000  -4.4280   0.0000   0.0000   0.0000   0.2895
  11.800   1.3417   0.04838   0.03951  -0.0777  0.0254  1.0000  -4.4901   0.0000   0.0000   0.0000   0.2890
  11.900   1.3417   0.04940   0.04055  -0.0773  0.0230  1.0000  -4.5477   0.0000   0.0000   0.0000   0.2885
  12.000   1.3410   0.05052   0.04167  -0.0769  0.0197  1.0000  -4.6002   0.0000   0.0000   0.0000   0.2880
  12.100   1.3398   0.05170   0.04285  -0.0765  0.0160  1.0000  -4.6493   0.0000   0.0000   0.0000   0.2876
  12.200   1.3383   0.05294   0.04409  -0.0761  0.0122  1.0000  -4.6957   0.0000   0.0000   0.0000   0.2872
  12.300   1.3351   0.05438   0.04551  -0.0757  0.0079  1.0000  -4.7328   0.0000   0.0000   0.0000   0.2868
  12.400   1.3318   0.05586   0.04698  -0.0754  0.0050  1.0000  -4.7708   0.0000   0.0000   0.0000   0.2865
  12.500   1.3318   0.05699   0.04814  -0.0751  0.0044  1.0000  -4.8265   0.0000   0.0000   0.0000   0.2861
  12.600   1.3317   0.05815   0.04935  -0.0749  0.0039  1.0000  -4.8815   0.0000   0.0000   0.0000   0.2857
  12.700   1.3320   0.05927   0.05051  -0.0747  0.0036  1.0000  -4.9392   0.0000   0.0000   0.0000   0.2854
  12.800   1.3323   0.06042   0.05169  -0.0745  0.0034  1.0000  -4.9965   0.0000   0.0000   0.0000   0.2850
  12.900   1.3325   0.06158   0.05290  -0.0743  0.0032  1.0000  -5.0530   0.0000   0.0000   0.0000   0.2847
  13.000   1.3329   0.06274   0.05409  -0.0741  0.0030  1.0000  -5.1105   0.0000   0.0000   0.0000   0.2843
  13.100   1.3334   0.06388   0.05527  -0.0740  0.0029  1.0000  -5.1699   0.0000   0.0000   0.0000   0.2840
  13.200   1.3341   0.06501   0.05645  -0.0738  0.0029  1.0000  -5.2316   0.0000   0.0000   0.0000   0.2837
  13.300   1.3350   0.06614   0.05763  -0.0737  0.0028  1.0000  -5.2946   0.0000   0.0000   0.0000   0.2833
  13.400   1.3359   0.06727   0.05882  -0.0736  0.0027  1.0000  -5.3575   0.0000   0.0000   0.0000   0.2830
  13.500   1.3366   0.06844   0.06003  -0.0735  0.0027  1.0000  -5.4197   0.0000   0.0000   0.0000   0.2827
  13.600   1.3374   0.06960   0.06125  -0.0735  0.0026  1.0000  -5.4828   0.0000   0.0000   0.0000   0.2824
  13.700   1.3382   0.07077   0.06247  -0.0734  0.0026  1.0000  -5.5463   0.0000   0.0000   0.0000   0.2822
  13.800   1.3390   0.07196   0.06370  -0.0734  0.0025  1.0000  -5.6093   0.0000   0.0000   0.0000   0.2819
  13.900   1.3397   0.07316   0.06496  -0.0734  0.0025  1.0000  -5.6722   0.0000   0.0000   0.0000   0.2816
  14.000   1.3405   0.07437   0.06622  -0.0733  0.0025  1.0000  -5.7355   0.0000   0.0000   0.0000   0.2814
  14.100   1.3413   0.07558   0.06748  -0.0733  0.0024  1.0000  -5.7992   0.0000   0.0000   0.0000   0.2812
  14.200   1.3420   0.07681   0.06877  -0.0734  0.0024  1.0000  -5.8623   0.0000   0.0000   0.0000   0.2809
  14.300   1.3427   0.07805   0.07006  -0.0734  0.0024  1.0000  -5.9254   0.0000   0.0000   0.0000   0.2807
  14.400   1.3434   0.07930   0.07136  -0.0735  0.0023  1.0000  -5.9888   0.0000   0.0000   0.0000   0.2805
  14.500   1.3441   0.08055   0.07268  -0.0735  0.0023  1.0000  -6.0526   0.0000   0.0000   0.0000   0.2803
  14.600   1.3448   0.08182   0.07401  -0.0736  0.0023  1.0000  -6.1156   0.0000   0.0000   0.0000   0.2801
  14.700   1.3454   0.08311   0.07534  -0.0737  0.0023  1.0000  -6.1783   0.0000   0.0000   0.0000   0.2800
  14.800   1.3461   0.08439   0.07669  -0.0738  0.0022  1.0000  -6.2409   0.0000   0.0000   0.0000   0.2798
  14.900   1.3467   0.08568   0.07803  -0.0739  0.0022  1.0000  -6.3038   0.0000   0.0000   0.0000   0.2797
  15.000   1.3473   0.08699   0.07939  -0.0740  0.0022  1.0000  -6.3660   0.0000   0.0000   0.0000   0.2795


