xflr5 v6.59

 Calculated polar for: SF-12

 1 1 Reynolds number fixed          Mach number fixed         

 xtrf =   1.000 (top)        1.000 (bottom)
 Mach =   0.050     Re =     0.230 e 6     Ncrit =   5.000

  alpha     CL        CD       CDp       Cm    Top Xtr Bot Xtr   Cpmin    Chinge    XCp    
 ------- -------- --------- --------- -------- ------- ------- -------- --------- ---------
  -3.000   0.3126   0.01358   0.00531  -0.1286  0.6878  0.0807  -1.5770   0.0000   0.0000   0.0000   0.6673
  -2.900   0.3235   0.01351   0.00526  -0.1286  0.6860  0.0827  -1.5297   0.0000   0.0000   0.0000   0.6529
  -2.800   0.3344   0.01344   0.00519  -0.1285  0.6841  0.0850  -1.4831   0.0000   0.0000   0.0000   0.6393
  -2.700   0.3454   0.01339   0.00510  -0.1284  0.6823  0.0877  -1.4373   0.0000   0.0000   0.0000   0.6265
  -2.600   0.3563   0.01332   0.00503  -0.1283  0.6806  0.0902  -1.3911   0.0000   0.0000   0.0000   0.6145
  -2.500   0.3674   0.01327   0.00497  -0.1283  0.6789  0.0929  -1.3449   0.0000   0.0000   0.0000   0.6032
  -2.400   0.3785   0.01323   0.00489  -0.1282  0.6774  0.0959  -1.2997   0.0000   0.0000   0.0000   0.5924
  -2.300   0.3895   0.01317   0.00482  -0.1282  0.6759  0.0986  -1.2544   0.0000   0.0000   0.0000   0.5823
  -2.200   0.4007   0.01314   0.00476  -0.1281  0.6744  0.1015  -1.2092   0.0000   0.0000   0.0000   0.5727
  -2.100   0.4115   0.01310   0.00472  -0.1281  0.6725  0.1049  -1.1701   0.0000   0.0000   0.0000   0.5638
  -2.000   0.4223   0.01305   0.00470  -0.1280  0.6705  0.1078  -1.1308   0.0000   0.0000   0.0000   0.5555
  -1.900   0.4331   0.01301   0.00467  -0.1279  0.6685  0.1112  -1.0916   0.0000   0.0000   0.0000   0.5474
  -1.800   0.4440   0.01298   0.00462  -0.1278  0.6666  0.1148  -1.0532   0.0000   0.0000   0.0000   0.5398
  -1.700   0.4548   0.01293   0.00460  -0.1278  0.6646  0.1180  -1.0144   0.0000   0.0000   0.0000   0.5325
  -1.600   0.4658   0.01290   0.00455  -0.1277  0.6627  0.1218  -0.9761   0.0000   0.0000   0.0000   0.5255
  -1.500   0.4767   0.01287   0.00451  -0.1276  0.6608  0.1254  -0.9381   0.0000   0.0000   0.0000   0.5188
  -1.400   0.4877   0.01283   0.00447  -0.1275  0.6591  0.1293  -0.9000   0.0000   0.0000   0.0000   0.5124
  -1.200   0.5099   0.01278   0.00439  -0.1274  0.6558  0.1372  -0.8654   0.0000   0.0000   0.0000   0.5004
  -1.100   0.5209   0.01277   0.00435  -0.1274  0.6542  0.1416  -0.8743   0.0000   0.0000   0.0000   0.4948
  -1.000   0.5315   0.01274   0.00436  -0.1273  0.6520  0.1456  -0.8829   0.0000   0.0000   0.0000   0.4896
  -0.900   0.5422   0.01272   0.00435  -0.1272  0.6499  0.1499  -0.8919   0.0000   0.0000   0.0000   0.4845
  -0.800   0.5530   0.01270   0.00434  -0.1271  0.6477  0.1543  -0.9009   0.0000   0.0000   0.0000   0.4795
  -0.700   0.5638   0.01267   0.00434  -0.1270  0.6456  0.1587  -0.9101   0.0000   0.0000   0.0000   0.4748
  -0.600   0.5746   0.01266   0.00431  -0.1269  0.6435  0.1637  -0.9194   0.0000   0.0000   0.0000   0.4702
  -0.500   0.5854   0.01263   0.00429  -0.1268  0.6415  0.1681  -0.9290   0.0000   0.0000   0.0000   0.4658
  -0.400   0.5964   0.01262   0.00426  -0.1268  0.6396  0.1731  -0.9386   0.0000   0.0000   0.0000   0.4616
  -0.300   0.6073   0.01260   0.00424  -0.1267  0.6378  0.1779  -0.9483   0.0000   0.0000   0.0000   0.4574
  -0.200   0.6184   0.01259   0.00421  -0.1266  0.6361  0.1833  -0.9583   0.0000   0.0000   0.0000   0.4535
  -0.100   0.6291   0.01258   0.00421  -0.1265  0.6340  0.1883  -0.9681   0.0000   0.0000   0.0000   0.4497
   0.000   0.6396   0.01256   0.00423  -0.1264  0.6317  0.1936  -0.9779   0.0000   0.0000   0.0000   0.4460
   0.100   0.6502   0.01255   0.00424  -0.1263  0.6293  0.1990  -0.9877   0.0000   0.0000   0.0000   0.4425
   0.200   0.6609   0.01254   0.00425  -0.1262  0.6269  0.2049  -0.9976   0.0000   0.0000   0.0000   0.4390
   0.300   0.6715   0.01253   0.00424  -0.1261  0.6247  0.2106  -1.0079   0.0000   0.0000   0.0000   0.4357
   0.400   0.6823   0.01251   0.00423  -0.1260  0.6225  0.2168  -1.0183   0.0000   0.0000   0.0000   0.4324
   0.500   0.6931   0.01250   0.00421  -0.1259  0.6204  0.2231  -1.0288   0.0000   0.0000   0.0000   0.4293
   0.600   0.7039   0.01249   0.00420  -0.1258  0.6185  0.2301  -1.0393   0.0000   0.0000   0.0000   0.4262
   0.700   0.7148   0.01249   0.00419  -0.1257  0.6166  0.2369  -1.0502   0.0000   0.0000   0.0000   0.4232
   0.800   0.7252   0.01248   0.00422  -0.1256  0.6141  0.2442  -1.0607   0.0000   0.0000   0.0000   0.4204
   0.900   0.7356   0.01247   0.00425  -0.1255  0.6115  0.2519  -1.0713   0.0000   0.0000   0.0000   0.4176
   1.000   0.7460   0.01246   0.00426  -0.1253  0.6089  0.2600  -1.0819   0.0000   0.0000   0.0000   0.4149
   1.200   0.7671   0.01244   0.00428  -0.1251  0.6040  0.2784  -1.1039   0.0000   0.0000   0.0000   0.4097
   1.300   0.7776   0.01242   0.00427  -0.1250  0.6017  0.2889  -1.1152   0.0000   0.0000   0.0000   0.4072
   1.400   0.7882   0.01240   0.00427  -0.1249  0.5995  0.3006  -1.1266   0.0000   0.0000   0.0000   0.4047
   1.500   0.7987   0.01239   0.00428  -0.1247  0.5974  0.3141  -1.1378   0.0000   0.0000   0.0000   0.4024
   1.600   0.8088   0.01236   0.00432  -0.1246  0.5946  0.3303  -1.1489   0.0000   0.0000   0.0000   0.4001
   1.700   0.8189   0.01232   0.00435  -0.1244  0.5918  0.3516  -1.1602   0.0000   0.0000   0.0000   0.3979
   1.800   0.8289   0.01224   0.00439  -0.1242  0.5891  0.3860  -1.1716   0.0000   0.0000   0.0000   0.3957
   1.900   0.8362   0.01180   0.00447  -0.1237  0.5866  0.5751  -1.1812   0.0000   0.0000   0.0000   0.3936
   2.100   0.8675   0.01113   0.00448  -0.1251  0.5815  1.0000  -1.2128   0.0000   0.0000   0.0000   0.3896
   2.200   0.8778   0.01118   0.00449  -0.1249  0.5791  1.0000  -1.2250   0.0000   0.0000   0.0000   0.3875
   2.300   0.8879   0.01123   0.00453  -0.1247  0.5762  1.0000  -1.2370   0.0000   0.0000   0.0000   0.3856
   2.400   0.8980   0.01128   0.00457  -0.1245  0.5732  1.0000  -1.2489   0.0000   0.0000   0.0000   0.3836
   2.500   0.9080   0.01133   0.00459  -0.1243  0.5702  1.0000  -1.2610   0.0000   0.0000   0.0000   0.3817
   2.600   0.9182   0.01138   0.00461  -0.1241  0.5674  1.0000  -1.2735   0.0000   0.0000   0.0000   0.3798
   2.700   0.9283   0.01143   0.00462  -0.1238  0.5647  1.0000  -1.2862   0.0000   0.0000   0.0000   0.3780
   2.800   0.9385   0.01148   0.00463  -0.1236  0.5622  1.0000  -1.2989   0.0000   0.0000   0.0000   0.3762
   2.900   0.9485   0.01154   0.00468  -0.1234  0.5592  1.0000  -1.3114   0.0000   0.0000   0.0000   0.3744
   3.000   0.9583   0.01159   0.00473  -0.1232  0.5560  1.0000  -1.3239   0.0000   0.0000   0.0000   0.3727
   3.100   0.9682   0.01165   0.00477  -0.1229  0.5529  1.0000  -1.3369   0.0000   0.0000   0.0000   0.3710
   3.200   0.9781   0.01171   0.00482  -0.1227  0.5498  1.0000  -1.3499   0.0000   0.0000   0.0000   0.3694
   3.300   0.9880   0.01177   0.00485  -0.1224  0.5469  1.0000  -1.3630   0.0000   0.0000   0.0000   0.3677
   3.400   0.9979   0.01183   0.00487  -0.1222  0.5441  1.0000  -1.3762   0.0000   0.0000   0.0000   0.3661
   3.500   1.0077   0.01189   0.00493  -0.1219  0.5409  1.0000  -1.3892   0.0000   0.0000   0.0000   0.3645
   3.600   1.0173   0.01195   0.00499  -0.1217  0.5376  1.0000  -1.4026   0.0000   0.0000   0.0000   0.3630
   3.700   1.0270   0.01202   0.00504  -0.1214  0.5342  1.0000  -1.4161   0.0000   0.0000   0.0000   0.3615
   3.800   1.0365   0.01209   0.00509  -0.1211  0.5310  1.0000  -1.4296   0.0000   0.0000   0.0000   0.3599
   3.900   1.0461   0.01216   0.00513  -0.1208  0.5279  1.0000  -1.4431   0.0000   0.0000   0.0000   0.3584
   4.000   1.0557   0.01223   0.00518  -0.1205  0.5248  1.0000  -1.4567   0.0000   0.0000   0.0000   0.3570
   4.100   1.0651   0.01230   0.00525  -0.1202  0.5214  1.0000  -1.4706   0.0000   0.0000   0.0000   0.3556
   4.200   1.0745   0.01237   0.00531  -0.1199  0.5178  1.0000  -1.4845   0.0000   0.0000   0.0000   0.3541
   4.300   1.0837   0.01245   0.00539  -0.1196  0.5143  1.0000  -1.4984   0.0000   0.0000   0.0000   0.3527
   4.400   1.0930   0.01253   0.00544  -0.1192  0.5110  1.0000  -1.5123   0.0000   0.0000   0.0000   0.3513
   4.500   1.1022   0.01262   0.00550  -0.1189  0.5078  1.0000  -1.5263   0.0000   0.0000   0.0000   0.3500
   4.600   1.1114   0.01269   0.00558  -0.1185  0.5042  1.0000  -1.5407   0.0000   0.0000   0.0000   0.3486
   4.700   1.1204   0.01277   0.00566  -0.1181  0.5005  1.0000  -1.5550   0.0000   0.0000   0.0000   0.3473
   4.800   1.1293   0.01286   0.00573  -0.1177  0.4968  1.0000  -1.5692   0.0000   0.0000   0.0000   0.3460
   4.900   1.1380   0.01295   0.00579  -0.1173  0.4934  1.0000  -1.5835   0.0000   0.0000   0.0000   0.3447
   5.000   1.1469   0.01305   0.00587  -0.1169  0.4900  1.0000  -1.5977   0.0000   0.0000   0.0000   0.3434
   5.100   1.1557   0.01313   0.00596  -0.1165  0.4863  1.0000  -1.6126   0.0000   0.0000   0.0000   0.3421
   5.200   1.1643   0.01322   0.00605  -0.1161  0.4824  1.0000  -1.6272   0.0000   0.0000   0.0000   0.3408
   5.300   1.1727   0.01332   0.00613  -0.1156  0.4787  1.0000  -1.6418   0.0000   0.0000   0.0000   0.3396
   5.400   1.1809   0.01343   0.00621  -0.1151  0.4752  1.0000  -1.6562   0.0000   0.0000   0.0000   0.3383
   5.500   1.1893   0.01352   0.00630  -0.1146  0.4716  1.0000  -1.6708   0.0000   0.0000   0.0000   0.3371
   5.600   1.1976   0.01362   0.00642  -0.1141  0.4677  1.0000  -1.6859   0.0000   0.0000   0.0000   0.3359
   5.700   1.2057   0.01373   0.00652  -0.1136  0.4638  1.0000  -1.7008   0.0000   0.0000   0.0000   0.3346
   5.800   1.2134   0.01384   0.00661  -0.1130  0.4601  1.0000  -1.7155   0.0000   0.0000   0.0000   0.3334
   5.900   1.2211   0.01396   0.00671  -0.1124  0.4566  1.0000  -1.7301   0.0000   0.0000   0.0000   0.3322
   6.000   1.2290   0.01406   0.00682  -0.1118  0.4527  1.0000  -1.7450   0.0000   0.0000   0.0000   0.3310
   6.100   1.2366   0.01417   0.00693  -0.1112  0.4488  1.0000  -1.7601   0.0000   0.0000   0.0000   0.3298
   6.200   1.2438   0.01429   0.00704  -0.1105  0.4450  1.0000  -1.7750   0.0000   0.0000   0.0000   0.3286
   6.300   1.2506   0.01443   0.00715  -0.1098  0.4414  1.0000  -1.7896   0.0000   0.0000   0.0000   0.3273
   6.400   1.2579   0.01454   0.00727  -0.1092  0.4376  1.0000  -1.8046   0.0000   0.0000   0.0000   0.3262
   6.500   1.2649   0.01466   0.00739  -0.1085  0.4336  1.0000  -1.8193   0.0000   0.0000   0.0000   0.3250
   6.600   1.2714   0.01479   0.00751  -0.1077  0.4298  1.0000  -1.8340   0.0000   0.0000   0.0000   0.3238
   6.700   1.2775   0.01493   0.00763  -0.1068  0.4262  1.0000  -1.8485   0.0000   0.0000   0.0000   0.3225
   6.800   1.2838   0.01506   0.00778  -0.1060  0.4227  1.0000  -1.8632   0.0000   0.0000   0.0000   0.3213
   6.900   1.2895   0.01518   0.00791  -0.1050  0.4188  1.0000  -1.8774   0.0000   0.0000   0.0000   0.3201
   7.000   1.2943   0.01531   0.00804  -0.1039  0.4150  1.0000  -1.8907   0.0000   0.0000   0.0000   0.3188
   7.100   1.2986   0.01546   0.00817  -0.1027  0.4115  1.0000  -1.9036   0.0000   0.0000   0.0000   0.3174
   7.200   1.3028   0.01561   0.00831  -0.1015  0.4082  1.0000  -1.9170   0.0000   0.0000   0.0000   0.3161
   7.300   1.3082   0.01574   0.00846  -0.1005  0.4045  1.0000  -1.9315   0.0000   0.0000   0.0000   0.3149
   7.400   1.3130   0.01589   0.00861  -0.0994  0.4007  1.0000  -1.9454   0.0000   0.0000   0.0000   0.3136
   7.500   1.3171   0.01606   0.00877  -0.0983  0.3969  1.0000  -1.9587   0.0000   0.0000   0.0000   0.3123
   7.600   1.3199   0.01626   0.00894  -0.0969  0.3924  1.0000  -1.9706   0.0000   0.0000   0.0000   0.3110
   7.700   1.3228   0.01645   0.00912  -0.0955  0.3863  1.0000  -1.9831   0.0000   0.0000   0.0000   0.3096
   7.800   1.3238   0.01669   0.00933  -0.0939  0.3799  1.0000  -1.9936   0.0000   0.0000   0.0000   0.3082
   7.900   1.3251   0.01693   0.00955  -0.0923  0.3729  1.0000  -2.0044   0.0000   0.0000   0.0000   0.3068
   8.000   1.3252   0.01722   0.00979  -0.0906  0.3654  1.0000  -2.0139   0.0000   0.0000   0.0000   0.3053
   8.100   1.3254   0.01751   0.01005  -0.0890  0.3578  1.0000  -2.0235   0.0000   0.0000   0.0000   0.3039
   8.200   1.3250   0.01784   0.01033  -0.0872  0.3498  1.0000  -2.0323   0.0000   0.0000   0.0000   0.3025
   8.300   1.3250   0.01817   0.01063  -0.0856  0.3416  1.0000  -2.0419   0.0000   0.0000   0.0000   0.3011
   8.400   1.3234   0.01857   0.01099  -0.0839  0.3334  1.0000  -2.0498   0.0000   0.0000   0.0000   0.2997
   8.500   1.3234   0.01894   0.01132  -0.0824  0.3244  1.0000  -2.0596   0.0000   0.0000   0.0000   0.2983
   8.600   1.3225   0.01936   0.01169  -0.0808  0.3170  1.0000  -2.0681   0.0000   0.0000   0.0000   0.2970
   8.700   1.3231   0.01974   0.01205  -0.0794  0.3089  1.0000  -2.0784   0.0000   0.0000   0.0000   0.2958
   8.800   1.3232   0.02017   0.01243  -0.0780  0.3024  1.0000  -2.0879   0.0000   0.0000   0.0000   0.2946
   8.900   1.3251   0.02053   0.01278  -0.0769  0.2962  1.0000  -2.1003   0.0000   0.0000   0.0000   0.2935
   9.000   1.3271   0.02090   0.01314  -0.0758  0.2919  1.0000  -2.1127   0.0000   0.0000   0.0000   0.2924
   9.100   1.3303   0.02123   0.01347  -0.0749  0.2880  1.0000  -2.1266   0.0000   0.0000   0.0000   0.2914
   9.200   1.3336   0.02157   0.01381  -0.0740  0.2838  1.0000  -2.1408   0.0000   0.0000   0.0000   0.2904
   9.300   1.3361   0.02194   0.01418  -0.0730  0.2798  1.0000  -2.1546   0.0000   0.0000   0.0000   0.2894
   9.400   1.3386   0.02233   0.01456  -0.0721  0.2761  1.0000  -2.1683   0.0000   0.0000   0.0000   0.2884
   9.500   1.3421   0.02268   0.01492  -0.0712  0.2720  1.0000  -2.1837   0.0000   0.0000   0.0000   0.2875
   9.600   1.3447   0.02308   0.01531  -0.0704  0.2679  1.0000  -2.1985   0.0000   0.0000   0.0000   0.2865
   9.800   1.3504   0.02388   0.01611  -0.0686  0.2604  1.0000  -2.2916   0.0000   0.0000   0.0000   0.2847
   9.900   1.3532   0.02429   0.01653  -0.0678  0.2564  1.0000  -2.3512   0.0000   0.0000   0.0000   0.2838
  10.000   1.3553   0.02474   0.01698  -0.0669  0.2527  1.0000  -2.4079   0.0000   0.0000   0.0000   0.2829
  10.100   1.3584   0.02515   0.01740  -0.0662  0.2492  1.0000  -2.4704   0.0000   0.0000   0.0000   0.2820
  10.200   1.3615   0.02557   0.01783  -0.0654  0.2453  1.0000  -2.5324   0.0000   0.0000   0.0000   0.2812
  10.300   1.3637   0.02604   0.01830  -0.0646  0.2416  1.0000  -2.5906   0.0000   0.0000   0.0000   0.2803
  10.400   1.3659   0.02652   0.01878  -0.0638  0.2382  1.0000  -2.6489   0.0000   0.0000   0.0000   0.2795
  10.500   1.3694   0.02694   0.01921  -0.0631  0.2344  1.0000  -2.7130   0.0000   0.0000   0.0000   0.2787
  10.600   1.3718   0.02743   0.01970  -0.0624  0.2306  1.0000  -2.7725   0.0000   0.0000   0.0000   0.2779
  10.700   1.3734   0.02797   0.02024  -0.0616  0.2272  1.0000  -2.8286   0.0000   0.0000   0.0000   0.2771
  10.800   1.3767   0.02841   0.02070  -0.0609  0.2236  1.0000  -2.8926   0.0000   0.0000   0.0000   0.2763
  10.900   1.3790   0.02892   0.02121  -0.0602  0.2195  1.0000  -2.9526   0.0000   0.0000   0.0000   0.2755
  11.000   1.3793   0.02957   0.02185  -0.0594  0.2146  1.0000  -3.0027   0.0000   0.0000   0.0000   0.2747
  11.100   1.3799   0.03021   0.02247  -0.0586  0.2079  1.0000  -3.0546   0.0000   0.0000   0.0000   0.2739
  11.200   1.3793   0.03095   0.02318  -0.0577  0.2011  1.0000  -3.1006   0.0000   0.0000   0.0000   0.2731
  11.300   1.3779   0.03175   0.02394  -0.0569  0.1935  1.0000  -3.1429   0.0000   0.0000   0.0000   0.2723
  11.400   1.3768   0.03256   0.02471  -0.0560  0.1854  1.0000  -3.1863   0.0000   0.0000   0.0000   0.2716
  11.500   1.3754   0.03339   0.02551  -0.0552  0.1773  1.0000  -3.2288   0.0000   0.0000   0.0000   0.2708
  11.600   1.3738   0.03427   0.02634  -0.0544  0.1699  1.0000  -3.2697   0.0000   0.0000   0.0000   0.2701
  11.700   1.3733   0.03508   0.02713  -0.0537  0.1630  1.0000  -3.3158   0.0000   0.0000   0.0000   0.2694
  11.800   1.3740   0.03581   0.02785  -0.0531  0.1577  1.0000  -3.3684   0.0000   0.0000   0.0000   0.2687
  11.900   1.3743   0.03658   0.02861  -0.0525  0.1526  1.0000  -3.4186   0.0000   0.0000   0.0000   0.2681
  12.000   1.3746   0.03736   0.02939  -0.0519  0.1472  1.0000  -3.4681   0.0000   0.0000   0.0000   0.2674
  12.100   1.3746   0.03819   0.03020  -0.0513  0.1420  1.0000  -3.5165   0.0000   0.0000   0.0000   0.2668
  12.200   1.3752   0.03897   0.03098  -0.0508  0.1364  1.0000  -3.5677   0.0000   0.0000   0.0000   0.2662
  12.300   1.3748   0.03985   0.03185  -0.0502  0.1311  1.0000  -3.6142   0.0000   0.0000   0.0000   0.2656
  12.400   1.3746   0.04073   0.03271  -0.0497  0.1255  1.0000  -3.6615   0.0000   0.0000   0.0000   0.2650
  12.500   1.3743   0.04163   0.03359  -0.0492  0.1198  1.0000  -3.7085   0.0000   0.0000   0.0000   0.2645
  12.600   1.3736   0.04258   0.03453  -0.0487  0.1141  1.0000  -3.7529   0.0000   0.0000   0.0000   0.2639
  12.700   1.3727   0.04356   0.03550  -0.0482  0.1081  1.0000  -3.7964   0.0000   0.0000   0.0000   0.2634
  12.800   1.3708   0.04466   0.03656  -0.0477  0.1009  1.0000  -3.8343   0.0000   0.0000   0.0000   0.2629
  12.900   1.3678   0.04587   0.03773  -0.0472  0.0928  1.0000  -3.8662   0.0000   0.0000   0.0000   0.2624
  13.000   1.3640   0.04718   0.03899  -0.0468  0.0842  1.0000  -3.8939   0.0000   0.0000   0.0000   0.2619
  13.100   1.3601   0.04853   0.04029  -0.0463  0.0757  1.0000  -3.9205   0.0000   0.0000   0.0000   0.2615
  13.200   1.3556   0.04997   0.04168  -0.0459  0.0667  1.0000  -3.9434   0.0000   0.0000   0.0000   0.2611
  13.300   1.3492   0.05163   0.04327  -0.0455  0.0566  1.0000  -3.9563   0.0000   0.0000   0.0000   0.2608
  13.400   1.3409   0.05353   0.04509  -0.0451  0.0449  1.0000  -3.9577   0.0000   0.0000   0.0000   0.2605
  13.500   1.3317   0.05558   0.04705  -0.0448  0.0334  1.0000  -3.9542   0.0000   0.0000   0.0000   0.2603
  13.600   1.3229   0.05764   0.04904  -0.0446  0.0228  1.0000  -3.9515   0.0000   0.0000   0.0000   0.2601
  13.700   1.3146   0.05971   0.05106  -0.0444  0.0136  1.0000  -3.9510   0.0000   0.0000   0.0000   0.2600
  13.800   1.3076   0.06169   0.05300  -0.0443  0.0060  1.0000  -3.9567   0.0000   0.0000   0.0000   0.2599
  13.900   1.3038   0.06332   0.05464  -0.0443  0.0034  1.0000  -3.9806   0.0000   0.0000   0.0000   0.2598
  14.000   1.3039   0.06448   0.05584  -0.0443  0.0030  1.0000  -4.0264   0.0000   0.0000   0.0000   0.2595
  14.100   1.3045   0.06561   0.05700  -0.0442  0.0028  1.0000  -4.0750   0.0000   0.0000   0.0000   0.2593
  14.200   1.3046   0.06680   0.05823  -0.0442  0.0026  1.0000  -4.1218   0.0000   0.0000   0.0000   0.2591
  14.300   1.3050   0.06798   0.05944  -0.0443  0.0024  1.0000  -4.1695   0.0000   0.0000   0.0000   0.2589
  14.400   1.3057   0.06912   0.06062  -0.0443  0.0023  1.0000  -4.2194   0.0000   0.0000   0.0000   0.2587
  14.500   1.3063   0.07029   0.06184  -0.0444  0.0022  1.0000  -4.2681   0.0000   0.0000   0.0000   0.2585
  14.600   1.3067   0.07149   0.06308  -0.0444  0.0021  1.0000  -4.3159   0.0000   0.0000   0.0000   0.2583
  14.700   1.3074   0.07268   0.06431  -0.0445  0.0021  1.0000  -4.3660   0.0000   0.0000   0.0000   0.2581
  14.800   1.3082   0.07385   0.06553  -0.0446  0.0020  1.0000  -4.4172   0.0000   0.0000   0.0000   0.2580
  14.900   1.3087   0.07507   0.06679  -0.0447  0.0020  1.0000  -4.4667   0.0000   0.0000   0.0000   0.2579
  15.000   1.3091   0.07631   0.06808  -0.0449  0.0020  1.0000  -4.5159   0.0000   0.0000   0.0000   0.2577
  15.100   1.3096   0.07755   0.06936  -0.0450  0.0019  1.0000  -4.5659   0.0000   0.0000   0.0000   0.2576
  15.200   1.3102   0.07880   0.07065  -0.0452  0.0019  1.0000  -4.6158   0.0000   0.0000   0.0000   0.2575
  15.300   1.3104   0.08010   0.07200  -0.0454  0.0019  1.0000  -4.6637   0.0000   0.0000   0.0000   0.2574
  15.400   1.3106   0.08141   0.07336  -0.0456  0.0019  1.0000  -4.7117   0.0000   0.0000   0.0000   0.2574
  15.500   1.3109   0.08272   0.07471  -0.0458  0.0018  1.0000  -4.7604   0.0000   0.0000   0.0000   0.2573
  15.600   1.3110   0.08406   0.07610  -0.0461  0.0018  1.0000  -4.8080   0.0000   0.0000   0.0000   0.2573
  15.700   1.3110   0.08544   0.07752  -0.0463  0.0018  1.0000  -4.8545   0.0000   0.0000   0.0000   0.2573
  15.800   1.3110   0.08680   0.07894  -0.0466  0.0018  1.0000  -4.9016   0.0000   0.0000   0.0000   0.2573
  15.900   1.3111   0.08818   0.08036  -0.0469  0.0018  1.0000  -4.9487   0.0000   0.0000   0.0000   0.2573
  16.000   1.3109   0.08961   0.08184  -0.0472  0.0017  1.0000  -4.9937   0.0000   0.0000   0.0000   0.2573
  16.100   1.3106   0.09104   0.08332  -0.0476  0.0017  1.0000  -5.0386   0.0000   0.0000   0.0000   0.2574
  16.200   1.3105   0.09247   0.08479  -0.0479  0.0017  1.0000  -5.0845   0.0000   0.0000   0.0000   0.2574
  16.300   1.3102   0.09393   0.08630  -0.0483  0.0017  1.0000  -5.1289   0.0000   0.0000   0.0000   0.2575
  16.400   1.3098   0.09541   0.08783  -0.0487  0.0017  1.0000  -5.1723   0.0000   0.0000   0.0000   0.2576
  16.500   1.3096   0.09688   0.08935  -0.0491  0.0017  1.0000  -5.2165   0.0000   0.0000   0.0000   0.2577
  16.600   1.3092   0.09836   0.09087  -0.0496  0.0017  1.0000  -5.2603   0.0000   0.0000   0.0000   0.2578
  16.700   1.3086   0.09989   0.09245  -0.0500  0.0017  1.0000  -5.3020   0.0000   0.0000   0.0000   0.2579
  16.800   1.3082   0.10140   0.09402  -0.0505  0.0016  1.0000  -5.3441   0.0000   0.0000   0.0000   0.2581
  16.900   1.3077   0.10291   0.09558  -0.0509  0.0016  1.0000  -5.3868   0.0000   0.0000   0.0000   0.2582
  17.000   1.3071   0.10445   0.09717  -0.0514  0.0016  1.0000  -5.4274   0.0000   0.0000   0.0000   0.2584


