xflr5 v6.59

 Calculated polar for: SF-15

 1 1 Reynolds number fixed          Mach number fixed         

 xtrf =   1.000 (top)        1.000 (bottom)
 Mach =   0.050     Re =     0.130 e 6     Ncrit =   5.000

  alpha     CL        CD       CDp       Cm    Top Xtr Bot Xtr   Cpmin    Chinge    XCp    
 ------- -------- --------- --------- -------- ------- ------- -------- --------- ---------
  -3.000   0.4916   0.01834   0.01005  -0.1794  0.7684  0.0501  -1.8872   0.0000   0.0000   0.0000   0.6194
  -2.900   0.5040   0.01817   0.00987  -0.1797  0.7662  0.0518  -1.8169   0.0000   0.0000   0.0000   0.6107
  -2.800   0.5169   0.01795   0.00958  -0.1800  0.7642  0.0542  -1.7550   0.0000   0.0000   0.0000   0.6021
  -2.700   0.5284   0.01771   0.00921  -0.1800  0.7615  0.0564  -1.7091   0.0000   0.0000   0.0000   0.5943
  -2.600   0.5382   0.01755   0.00909  -0.1798  0.7581  0.0578  -1.6524   0.0000   0.0000   0.0000   0.5875
  -2.500   0.5488   0.01739   0.00891  -0.1797  0.7548  0.0595  -1.5974   0.0000   0.0000   0.0000   0.5807
  -2.400   0.5601   0.01720   0.00866  -0.1797  0.7519  0.0618  -1.5444   0.0000   0.0000   0.0000   0.5738
  -2.300   0.5718   0.01702   0.00844  -0.1798  0.7492  0.0645  -1.4874   0.0000   0.0000   0.0000   0.5671
  -2.200   0.5838   0.01689   0.00829  -0.1799  0.7468  0.0674  -1.4241   0.0000   0.0000   0.0000   0.5607
  -2.000   0.6086   0.01656   0.00785  -0.1803  0.7424  0.0735  -1.3064   0.0000   0.0000   0.0000   0.5483
  -1.900   0.6183   0.01647   0.00776  -0.1801  0.7388  0.0765  -1.2550   0.0000   0.0000   0.0000   0.5431
  -1.800   0.6287   0.01638   0.00765  -0.1799  0.7354  0.0801  -1.2037   0.0000   0.0000   0.0000   0.5379
  -1.700   0.6397   0.01629   0.00755  -0.1799  0.7324  0.0843  -1.1545   0.0000   0.0000   0.0000   0.5327
  -1.600   0.6511   0.01617   0.00742  -0.1799  0.7296  0.0886  -1.1059   0.0000   0.0000   0.0000   0.5276
  -1.500   0.6630   0.01606   0.00727  -0.1800  0.7271  0.0933  -1.0561   0.0000   0.0000   0.0000   0.5226
  -1.400   0.6753   0.01594   0.00714  -0.1802  0.7248  0.0987  -1.0046   0.0000   0.0000   0.0000   0.5177
  -1.300   0.6872   0.01585   0.00701  -0.1803  0.7224  0.1049  -0.9550   0.0000   0.0000   0.0000   0.5131
  -1.200   0.6969   0.01581   0.00699  -0.1801  0.7188  0.1107  -0.9220   0.0000   0.0000   0.0000   0.5089
  -1.100   0.7074   0.01575   0.00695  -0.1799  0.7155  0.1173  -0.9306   0.0000   0.0000   0.0000   0.5048
  -1.000   0.7183   0.01568   0.00688  -0.1799  0.7124  0.1250  -0.9396   0.0000   0.0000   0.0000   0.5006
  -0.900   0.7297   0.01561   0.00680  -0.1799  0.7096  0.1337  -0.9491   0.0000   0.0000   0.0000   0.4966
  -0.800   0.7414   0.01553   0.00671  -0.1800  0.7071  0.1439  -0.9590   0.0000   0.0000   0.0000   0.4926
  -0.700   0.7535   0.01545   0.00662  -0.1801  0.7048  0.1555  -0.9692   0.0000   0.0000   0.0000   0.4888
  -0.600   0.7643   0.01540   0.00659  -0.1801  0.7018  0.1680  -0.9786   0.0000   0.0000   0.0000   0.4851
  -0.500   0.7742   0.01538   0.00660  -0.1799  0.6983  0.1822  -0.9876   0.0000   0.0000   0.0000   0.4817
  -0.400   0.7847   0.01533   0.00660  -0.1798  0.6951  0.1983  -0.9970   0.0000   0.0000   0.0000   0.4783
  -0.300   0.7957   0.01529   0.00658  -0.1797  0.6921  0.2176  -1.0069   0.0000   0.0000   0.0000   0.4750
  -0.200   0.8071   0.01522   0.00655  -0.1798  0.6893  0.2396  -1.0173   0.0000   0.0000   0.0000   0.4717
  -0.100   0.8188   0.01516   0.00651  -0.1799  0.6869  0.2649  -1.0282   0.0000   0.0000   0.0000   0.4684
   0.000   0.8305   0.01510   0.00648  -0.1799  0.6844  0.2928  -1.0389   0.0000   0.0000   0.0000   0.4653
   0.100   0.8399   0.01508   0.00655  -0.1797  0.6808  0.3208  -1.0482   0.0000   0.0000   0.0000   0.4624
   0.200   0.8501   0.01505   0.00660  -0.1795  0.6774  0.3520  -1.0584   0.0000   0.0000   0.0000   0.4595
   0.300   0.8608   0.01501   0.00661  -0.1794  0.6743  0.3875  -1.0689   0.0000   0.0000   0.0000   0.4566
   0.400   0.8718   0.01496   0.00662  -0.1794  0.6714  0.4265  -1.0797   0.0000   0.0000   0.0000   0.4538
   0.500   0.8831   0.01489   0.00661  -0.1793  0.6688  0.4699  -1.0912   0.0000   0.0000   0.0000   0.4510
   0.600   0.8946   0.01482   0.00660  -0.1793  0.6665  0.5175  -1.1029   0.0000   0.0000   0.0000   0.4482
   0.700   0.9035   0.01479   0.00669  -0.1789  0.6630  0.5646  -1.1127   0.0000   0.0000   0.0000   0.4456
   0.800   0.9126   0.01473   0.00675  -0.1784  0.6595  0.6169  -1.1227   0.0000   0.0000   0.0000   0.4430
   0.900   0.9215   0.01463   0.00677  -0.1778  0.6563  0.6760  -1.1330   0.0000   0.0000   0.0000   0.4403
   1.000   0.9290   0.01444   0.00674  -0.1769  0.6535  0.7552  -1.1427   0.0000   0.0000   0.0000   0.4376
   1.100   0.9390   0.01419   0.00662  -0.1764  0.6508  1.0000  -1.1539   0.0000   0.0000   0.0000   0.4349
   1.300   0.9604   0.01434   0.00664  -0.1762  0.6447  1.0000  -1.1776   0.0000   0.0000   0.0000   0.4302
   1.400   0.9703   0.01442   0.00668  -0.1759  0.6412  1.0000  -1.1891   0.0000   0.0000   0.0000   0.4279
   1.500   0.9808   0.01449   0.00670  -0.1758  0.6379  1.0000  -1.2010   0.0000   0.0000   0.0000   0.4257
   1.600   0.9918   0.01455   0.00670  -0.1757  0.6349  1.0000  -1.2138   0.0000   0.0000   0.0000   0.4235
   1.700   1.0032   0.01460   0.00669  -0.1757  0.6322  1.0000  -1.2270   0.0000   0.0000   0.0000   0.4213
   1.800   1.0140   0.01468   0.00671  -0.1756  0.6294  1.0000  -1.2397   0.0000   0.0000   0.0000   0.4192
   1.900   1.0235   0.01477   0.00679  -0.1753  0.6257  1.0000  -1.2515   0.0000   0.0000   0.0000   0.4172
   2.000   1.0334   0.01485   0.00684  -0.1751  0.6222  1.0000  -1.2641   0.0000   0.0000   0.0000   0.4152
   2.100   1.0439   0.01492   0.00687  -0.1749  0.6190  1.0000  -1.2771   0.0000   0.0000   0.0000   0.4132
   2.200   1.0548   0.01499   0.00687  -0.1749  0.6161  1.0000  -1.2906   0.0000   0.0000   0.0000   0.4112
   2.300   1.0662   0.01506   0.00687  -0.1749  0.6135  1.0000  -1.3048   0.0000   0.0000   0.0000   0.4093
   2.400   1.0756   0.01515   0.00695  -0.1745  0.6099  1.0000  -1.3176   0.0000   0.0000   0.0000   0.4075
   2.500   1.0851   0.01524   0.00703  -0.1743  0.6063  1.0000  -1.3305   0.0000   0.0000   0.0000   0.4056
   2.600   1.0952   0.01533   0.00708  -0.1740  0.6029  1.0000  -1.3439   0.0000   0.0000   0.0000   0.4038
   2.700   1.1057   0.01540   0.00711  -0.1739  0.5998  1.0000  -1.3580   0.0000   0.0000   0.0000   0.4020
   2.800   1.1167   0.01547   0.00712  -0.1738  0.5971  1.0000  -1.3729   0.0000   0.0000   0.0000   0.4003
   2.900   1.1265   0.01557   0.00720  -0.1736  0.5937  1.0000  -1.3867   0.0000   0.0000   0.0000   0.3986
   3.000   1.1358   0.01567   0.00729  -0.1732  0.5900  1.0000  -1.4001   0.0000   0.0000   0.0000   0.3969
   3.100   1.1455   0.01576   0.00737  -0.1730  0.5865  1.0000  -1.4139   0.0000   0.0000   0.0000   0.3952
   3.200   1.1557   0.01584   0.00744  -0.1728  0.5833  1.0000  -1.4289   0.0000   0.0000   0.0000   0.3936
   3.300   1.1664   0.01592   0.00747  -0.1727  0.5804  1.0000  -1.4444   0.0000   0.0000   0.0000   0.3919
   3.400   1.1762   0.01602   0.00755  -0.1724  0.5771  1.0000  -1.4590   0.0000   0.0000   0.0000   0.3903
   3.500   1.1852   0.01612   0.00766  -0.1720  0.5734  1.0000  -1.4728   0.0000   0.0000   0.0000   0.3888
   3.600   1.1947   0.01622   0.00774  -0.1717  0.5698  1.0000  -1.4874   0.0000   0.0000   0.0000   0.3872
   3.700   1.2046   0.01631   0.00780  -0.1715  0.5665  1.0000  -1.5030   0.0000   0.0000   0.0000   0.3857
   3.800   1.2151   0.01640   0.00784  -0.1714  0.5636  1.0000  -1.5191   0.0000   0.0000   0.0000   0.3842
   3.900   1.2244   0.01651   0.00794  -0.1710  0.5601  1.0000  -1.5340   0.0000   0.0000   0.0000   0.3827
   4.000   1.2332   0.01662   0.00806  -0.1706  0.5562  1.0000  -1.5486   0.0000   0.0000   0.0000   0.3812
   4.100   1.2426   0.01672   0.00815  -0.1703  0.5526  1.0000  -1.5637   0.0000   0.0000   0.0000   0.3798
   4.200   1.2524   0.01681   0.00822  -0.1701  0.5494  1.0000  -1.5799   0.0000   0.0000   0.0000   0.3784
   4.300   1.2627   0.01691   0.00830  -0.1699  0.5464  1.0000  -1.5968   0.0000   0.0000   0.0000   0.3770
   4.400   1.2711   0.01703   0.00844  -0.1694  0.5425  1.0000  -1.6117   0.0000   0.0000   0.0000   0.3756
   4.500   1.2798   0.01714   0.00856  -0.1690  0.5386  1.0000  -1.6270   0.0000   0.0000   0.0000   0.3742
   4.600   1.2891   0.01725   0.00865  -0.1687  0.5351  1.0000  -1.6429   0.0000   0.0000   0.0000   0.3728
   4.700   1.2988   0.01735   0.00872  -0.1684  0.5318  1.0000  -1.6594   0.0000   0.0000   0.0000   0.3715
   4.800   1.3079   0.01747   0.00882  -0.1680  0.5284  1.0000  -1.6758   0.0000   0.0000   0.0000   0.3702
   4.900   1.3162   0.01759   0.00897  -0.1675  0.5244  1.0000  -1.6914   0.0000   0.0000   0.0000   0.3688
   5.000   1.3249   0.01771   0.00909  -0.1671  0.5206  1.0000  -1.7076   0.0000   0.0000   0.0000   0.3675
   5.100   1.3341   0.01782   0.00918  -0.1668  0.5171  1.0000  -1.7244   0.0000   0.0000   0.0000   0.3662
   5.200   1.3436   0.01793   0.00926  -0.1665  0.5139  1.0000  -1.7416   0.0000   0.0000   0.0000   0.3650
   5.300   1.3513   0.01807   0.00942  -0.1659  0.5098  1.0000  -1.7568   0.0000   0.0000   0.0000   0.3637
   5.400   1.3596   0.01819   0.00959  -0.1654  0.5059  1.0000  -1.7727   0.0000   0.0000   0.0000   0.3624
   5.500   1.3683   0.01831   0.00970  -0.1650  0.5022  1.0000  -1.7894   0.0000   0.0000   0.0000   0.3612
   5.600   1.3775   0.01843   0.00978  -0.1646  0.4990  1.0000  -1.8073   0.0000   0.0000   0.0000   0.3599
   5.700   1.3851   0.01857   0.00996  -0.1640  0.4948  1.0000  -1.8232   0.0000   0.0000   0.0000   0.3587
   5.800   1.3929   0.01871   0.01011  -0.1634  0.4908  1.0000  -1.8395   0.0000   0.0000   0.0000   0.3575
   5.900   1.4011   0.01884   0.01023  -0.1629  0.4870  1.0000  -1.8564   0.0000   0.0000   0.0000   0.3563
   6.000   1.4098   0.01897   0.01033  -0.1625  0.4837  1.0000  -1.8739   0.0000   0.0000   0.0000   0.3551
   6.100   1.4171   0.01912   0.01051  -0.1619  0.4795  1.0000  -1.8896   0.0000   0.0000   0.0000   0.3539
   6.200   1.4245   0.01926   0.01067  -0.1612  0.4754  1.0000  -1.9056   0.0000   0.0000   0.0000   0.3527
   6.300   1.4323   0.01941   0.01081  -0.1607  0.4716  1.0000  -1.9221   0.0000   0.0000   0.0000   0.3515
   6.500   1.4472   0.01971   0.01112  -0.1594  0.4639  1.0000  -1.9557   0.0000   0.0000   0.0000   0.3492
   6.600   1.4542   0.01986   0.01132  -0.1587  0.4598  1.0000  -1.9722   0.0000   0.0000   0.0000   0.3480
   6.700   1.4615   0.02002   0.01147  -0.1581  0.4559  1.0000  -1.9892   0.0000   0.0000   0.0000   0.3469
   6.800   1.4690   0.02018   0.01161  -0.1574  0.4524  1.0000  -2.0063   0.0000   0.0000   0.0000   0.3457
   6.900   1.4752   0.02034   0.01182  -0.1566  0.4481  1.0000  -2.0219   0.0000   0.0000   0.0000   0.3446
   7.000   1.4816   0.02051   0.01200  -0.1558  0.4439  1.0000  -2.0379   0.0000   0.0000   0.0000   0.3434
   7.100   1.4884   0.02068   0.01216  -0.1551  0.4401  1.0000  -2.0544   0.0000   0.0000   0.0000   0.3423
   7.200   1.4947   0.02085   0.01234  -0.1543  0.4363  1.0000  -2.0703   0.0000   0.0000   0.0000   0.3411
   7.300   1.5000   0.02102   0.01255  -0.1533  0.4321  1.0000  -2.0850   0.0000   0.0000   0.0000   0.3399
   7.400   1.5054   0.02120   0.01273  -0.1523  0.4282  1.0000  -2.0999   0.0000   0.0000   0.0000   0.3388
   7.500   1.5112   0.02138   0.01289  -0.1514  0.4246  1.0000  -2.1159   0.0000   0.0000   0.0000   0.3376
   7.600   1.5159   0.02157   0.01311  -0.1504  0.4205  1.0000  -2.1309   0.0000   0.0000   0.0000   0.3364
   7.700   1.5205   0.02176   0.01333  -0.1493  0.4164  1.0000  -2.1457   0.0000   0.0000   0.0000   0.3352
   7.800   1.5255   0.02196   0.01355  -0.1483  0.4125  1.0000  -2.1611   0.0000   0.0000   0.0000   0.3341
   7.900   1.5310   0.02216   0.01374  -0.1473  0.4089  1.0000  -2.1771   0.0000   0.0000   0.0000   0.3330
   8.000   1.5355   0.02237   0.01400  -0.1463  0.4048  1.0000  -2.1917   0.0000   0.0000   0.0000   0.3318
   8.100   1.5401   0.02259   0.01423  -0.1452  0.4007  1.0000  -2.2065   0.0000   0.0000   0.0000   0.3307
   8.200   1.5448   0.02281   0.01445  -0.1442  0.3970  1.0000  -2.2216   0.0000   0.0000   0.0000   0.3296
   8.300   1.5484   0.02305   0.01470  -0.1430  0.3924  1.0000  -2.2448   0.0000   0.0000   0.0000   0.3284
   8.400   1.5507   0.02331   0.01497  -0.1417  0.3867  1.0000  -2.3104   0.0000   0.0000   0.0000   0.3272
   8.500   1.5526   0.02360   0.01521  -0.1402  0.3808  1.0000  -2.3751   0.0000   0.0000   0.0000   0.3260
   8.600   1.5536   0.02390   0.01553  -0.1387  0.3736  1.0000  -2.4353   0.0000   0.0000   0.0000   0.3248
   8.700   1.5541   0.02423   0.01582  -0.1371  0.3669  1.0000  -2.4939   0.0000   0.0000   0.0000   0.3236
   8.800   1.5545   0.02458   0.01617  -0.1356  0.3590  1.0000  -2.5516   0.0000   0.0000   0.0000   0.3224
   8.900   1.5545   0.02497   0.01652  -0.1340  0.3515  1.0000  -2.6083   0.0000   0.0000   0.0000   0.3212
   9.000   1.5543   0.02538   0.01690  -0.1324  0.3434  1.0000  -2.6638   0.0000   0.0000   0.0000   0.3200
   9.100   1.5542   0.02581   0.01730  -0.1309  0.3355  1.0000  -2.7200   0.0000   0.0000   0.0000   0.3189
   9.200   1.5536   0.02628   0.01773  -0.1294  0.3278  1.0000  -2.7741   0.0000   0.0000   0.0000   0.3178
   9.300   1.5538   0.02674   0.01818  -0.1280  0.3195  1.0000  -2.8318   0.0000   0.0000   0.0000   0.3167
   9.400   1.5535   0.02725   0.01864  -0.1266  0.3123  1.0000  -2.8870   0.0000   0.0000   0.0000   0.3156
   9.500   1.5541   0.02773   0.01914  -0.1253  0.3048  1.0000  -2.9492   0.0000   0.0000   0.0000   0.3146
   9.600   1.5546   0.02825   0.01963  -0.1241  0.2983  1.0000  -3.0087   0.0000   0.0000   0.0000   0.3136
   9.700   1.5559   0.02874   0.02012  -0.1230  0.2921  1.0000  -3.0725   0.0000   0.0000   0.0000   0.3126
   9.800   1.5573   0.02924   0.02062  -0.1219  0.2875  1.0000  -3.1374   0.0000   0.0000   0.0000   0.3116
   9.900   1.5609   0.02966   0.02107  -0.1211  0.2833  1.0000  -3.2130   0.0000   0.0000   0.0000   0.3107
  10.000   1.5635   0.03012   0.02155  -0.1202  0.2794  1.0000  -3.2839   0.0000   0.0000   0.0000   0.3098
  10.100   1.5655   0.03063   0.02207  -0.1192  0.2758  1.0000  -3.3516   0.0000   0.0000   0.0000   0.3089
  10.200   1.5688   0.03108   0.02255  -0.1184  0.2720  1.0000  -3.4261   0.0000   0.0000   0.0000   0.3081
  10.300   1.5716   0.03156   0.02306  -0.1176  0.2682  1.0000  -3.4987   0.0000   0.0000   0.0000   0.3072
  10.400   1.5737   0.03210   0.02361  -0.1167  0.2646  1.0000  -3.5672   0.0000   0.0000   0.0000   0.3064
  10.500   1.5761   0.03262   0.02416  -0.1158  0.2612  1.0000  -3.6372   0.0000   0.0000   0.0000   0.3055
  10.600   1.5782   0.03318   0.02474  -0.1150  0.2564  1.0000  -3.7054   0.0000   0.0000   0.0000   0.3047
  10.700   1.5782   0.03386   0.02541  -0.1140  0.2511  1.0000  -3.7626   0.0000   0.0000   0.0000   0.3039
  10.800   1.5786   0.03454   0.02610  -0.1130  0.2446  1.0000  -3.8224   0.0000   0.0000   0.0000   0.3031
  10.900   1.5772   0.03535   0.02688  -0.1120  0.2384  1.0000  -3.8718   0.0000   0.0000   0.0000   0.3023
  11.000   1.5771   0.03610   0.02763  -0.1111  0.2309  1.0000  -3.9282   0.0000   0.0000   0.0000   0.3015
  11.100   1.5758   0.03695   0.02846  -0.1101  0.2243  1.0000  -3.9779   0.0000   0.0000   0.0000   0.3007
  11.200   1.5752   0.03778   0.02930  -0.1092  0.2173  1.0000  -4.0293   0.0000   0.0000   0.0000   0.3000
  11.300   1.5752   0.03858   0.03010  -0.1084  0.2118  1.0000  -4.0850   0.0000   0.0000   0.0000   0.2993
  11.400   1.5766   0.03930   0.03084  -0.1077  0.2075  1.0000  -4.1478   0.0000   0.0000   0.0000   0.2986
  11.500   1.5773   0.04007   0.03164  -0.1070  0.2038  1.0000  -4.2066   0.0000   0.0000   0.0000   0.2979
  11.600   1.5786   0.04082   0.03241  -0.1064  0.1993  1.0000  -4.2683   0.0000   0.0000   0.0000   0.2973
  11.700   1.5778   0.04175   0.03335  -0.1056  0.1934  1.0000  -4.3178   0.0000   0.0000   0.0000   0.2966
  11.800   1.5765   0.04275   0.03433  -0.1049  0.1861  1.0000  -4.3647   0.0000   0.0000   0.0000   0.2960
  11.900   1.5740   0.04387   0.03542  -0.1042  0.1786  1.0000  -4.4045   0.0000   0.0000   0.0000   0.2954
  12.000   1.5713   0.04504   0.03657  -0.1035  0.1705  1.0000  -4.4429   0.0000   0.0000   0.0000   0.2949
  12.100   1.5696   0.04616   0.03767  -0.1029  0.1625  1.0000  -4.4853   0.0000   0.0000   0.0000   0.2944
  12.200   1.5685   0.04723   0.03875  -0.1023  0.1568  1.0000  -4.5310   0.0000   0.0000   0.0000   0.2938
  12.300   1.5676   0.04832   0.03984  -0.1018  0.1507  1.0000  -4.5761   0.0000   0.0000   0.0000   0.2933
  12.400   1.5654   0.04956   0.04106  -0.1012  0.1429  1.0000  -4.6139   0.0000   0.0000   0.0000   0.2929
  12.500   1.5618   0.05096   0.04243  -0.1007  0.1339  1.0000  -4.6442   0.0000   0.0000   0.0000   0.2925
  12.600   1.5576   0.05248   0.04389  -0.1003  0.1237  1.0000  -4.6699   0.0000   0.0000   0.0000   0.2921
  12.700   1.5528   0.05408   0.04545  -0.0998  0.1131  1.0000  -4.6923   0.0000   0.0000   0.0000   0.2918
  12.800   1.5479   0.05575   0.04706  -0.0994  0.1023  1.0000  -4.7131   0.0000   0.0000   0.0000   0.2916
  12.900   1.5413   0.05766   0.04889  -0.0991  0.0897  1.0000  -4.7246   0.0000   0.0000   0.0000   0.2914
  13.000   1.5316   0.05999   0.05109  -0.0988  0.0740  1.0000  -4.7194   0.0000   0.0000   0.0000   0.2914
  13.100   1.5218   0.06240   0.05338  -0.0986  0.0596  1.0000  -4.7128   0.0000   0.0000   0.0000   0.2915
  13.200   1.5123   0.06487   0.05575  -0.0985  0.0466  1.0000  -4.7063   0.0000   0.0000   0.0000   0.2917
  13.300   1.5030   0.06736   0.05816  -0.0985  0.0349  1.0000  -4.7002   0.0000   0.0000   0.0000   0.2919
  13.400   1.4940   0.06987   0.06060  -0.0986  0.0244  1.0000  -4.6952   0.0000   0.0000   0.0000   0.2921
  13.500   1.4857   0.07238   0.06306  -0.0987  0.0156  1.0000  -4.6927   0.0000   0.0000   0.0000   0.2924
  13.600   1.4782   0.07481   0.06546  -0.0990  0.0097  1.0000  -4.6951   0.0000   0.0000   0.0000   0.2926
  13.700   1.4733   0.07693   0.06759  -0.0992  0.0072  1.0000  -4.7124   0.0000   0.0000   0.0000   0.2928
  13.800   1.4708   0.07871   0.06941  -0.0993  0.0063  1.0000  -4.7432   0.0000   0.0000   0.0000   0.2928
  13.900   1.4692   0.08038   0.07114  -0.0995  0.0057  1.0000  -4.7789   0.0000   0.0000   0.0000   0.2928
  14.000   1.4678   0.08204   0.07286  -0.0997  0.0054  1.0000  -4.8154   0.0000   0.0000   0.0000   0.2928
  14.100   1.4665   0.08371   0.07458  -0.1000  0.0051  1.0000  -4.8520   0.0000   0.0000   0.0000   0.2928
  14.200   1.4651   0.08539   0.07635  -0.1002  0.0049  1.0000  -4.8885   0.0000   0.0000   0.0000   0.2928
  14.300   1.4636   0.08712   0.07814  -0.1005  0.0047  1.0000  -4.9239   0.0000   0.0000   0.0000   0.2929
  14.400   1.4621   0.08885   0.07993  -0.1009  0.0045  1.0000  -4.9593   0.0000   0.0000   0.0000   0.2929
  14.500   1.4604   0.09063   0.08178  -0.1012  0.0044  1.0000  -4.9928   0.0000   0.0000   0.0000   0.2931
  14.600   1.4590   0.09236   0.08357  -0.1016  0.0043  1.0000  -5.0283   0.0000   0.0000   0.0000   0.2932
  14.700   1.4578   0.09408   0.08536  -0.1020  0.0042  1.0000  -5.0648   0.0000   0.0000   0.0000   0.2933
  14.800   1.4566   0.09582   0.08717  -0.1024  0.0042  1.0000  -5.1007   0.0000   0.0000   0.0000   0.2934
  14.900   1.4553   0.09757   0.08898  -0.1029  0.0041  1.0000  -5.1367   0.0000   0.0000   0.0000   0.2936
  15.000   1.4540   0.09934   0.09083  -0.1034  0.0040  1.0000  -5.1713   0.0000   0.0000   0.0000   0.2937


