xflr5 v6.59

 Calculated polar for: SF-1

 1 1 Reynolds number fixed          Mach number fixed         

 xtrf =   1.000 (top)        1.000 (bottom)
 Mach =   0.050     Re =     0.200 e 6     Ncrit =   9.000

  alpha     CL        CD       CDp       Cm    Top Xtr Bot Xtr   Cpmin    Chinge    XCp    
 ------- -------- --------- --------- -------- ------- ------- -------- --------- ---------
  -5.000  -0.3899   0.04806   0.04457  -0.0295  1.0000  0.0368  -2.2882   0.0000   0.0000   0.0000   0.1715
  -4.900  -0.3752   0.04440   0.04047  -0.0323  0.9984  0.0386  -2.4766   0.0000   0.0000   0.0000   0.1609
  -4.800  -0.3636   0.04289   0.03898  -0.0335  0.9967  0.0389  -2.4099   0.0000   0.0000   0.0000   0.1549
  -4.700  -0.3510   0.04146   0.03751  -0.0347  0.9947  0.0393  -2.3589   0.0000   0.0000   0.0000   0.1481
  -4.600  -0.3379   0.03998   0.03597  -0.0360  0.9924  0.0400  -2.3251   0.0000   0.0000   0.0000   0.1405
  -4.500  -0.3240   0.03838   0.03425  -0.0373  0.9899  0.0407  -2.3124   0.0000   0.0000   0.0000   0.1319
  -4.400  -0.3097   0.03662   0.03232  -0.0385  0.9872  0.0414  -2.3224   0.0000   0.0000   0.0000   0.1223
  -4.300  -0.2951   0.03472   0.03023  -0.0397  0.9845  0.0412  -2.3479   0.0000   0.0000   0.0000   0.1121
  -4.200  -0.2856   0.02382   0.01787  -0.0369  0.9837  0.0162  -3.5924   0.0000   0.0000   0.0000   0.1166
  -4.100  -0.2710   0.02207   0.01576  -0.0373  0.9815  0.0163  -3.6941   0.0000   0.0000   0.0000   0.1079
  -4.000  -0.2559   0.02031   0.01351  -0.0375  0.9793  0.0169  -3.8538   0.0000   0.0000   0.0000   0.0987
  -3.900  -0.2394   0.01981   0.01305  -0.0388  0.9769  0.0179  -3.7245   0.0000   0.0000   0.0000   0.0831
  -3.800  -0.2228   0.01867   0.01156  -0.0394  0.9750  0.0206  -3.8309   0.0000   0.0000   0.0000   0.0681
  -3.700  -0.2049   0.01827   0.01112  -0.0408  0.9729  0.0249  -3.7568   0.0000   0.0000   0.0000   0.0456
  -3.600  -0.1851   0.01860   0.01149  -0.0429  0.9708  0.0309  -3.5274   0.0000   0.0000   0.0000   0.0128
  -3.500  -0.1653   0.01860   0.01140  -0.0447  0.9691  0.0371  -3.3620   0.0000   0.0000   0.0000  -0.0266
  -3.400  -0.1486   0.01855   0.01134  -0.0460  0.9668  0.0423  -3.1872   0.0000   0.0000   0.0000  -0.0662
  -3.300  -0.1395   0.01808   0.01077  -0.0455  0.9623  0.0449  -3.1054   0.0000   0.0000   0.0000  -0.0825
  -3.200  -0.1265   0.01777   0.01049  -0.0458  0.9584  0.0476  -2.9737   0.0000   0.0000   0.0000  -0.1192
  -3.100  -0.1112   0.01742   0.00994  -0.0462  0.9549  0.0498  -2.8773   0.0000   0.0000   0.0000  -0.1736
  -3.000  -0.0960   0.01681   0.00943  -0.0471  0.9518  0.0520  -2.7391   0.0000   0.0000   0.0000  -0.2490
  -2.900  -0.0792   0.01638   0.00897  -0.0480  0.9491  0.0540  -2.6108   0.0000   0.0000   0.0000  -0.3664
  -2.800  -0.0615   0.01594   0.00842  -0.0490  0.9466  0.0557  -2.4913   0.0000   0.0000   0.0000  -0.5597
  -2.700  -0.0440   0.01537   0.00792  -0.0502  0.9444  0.0579  -2.3540   0.0000   0.0000   0.0000  -0.9086
  -2.600  -0.0251   0.01502   0.00757  -0.0516  0.9424  0.0615  -2.2050   0.0000   0.0000   0.0000  -1.8303
  -2.500  -0.0063   0.01455   0.00713  -0.0531  0.9406  0.0649  -2.0635   0.0000   0.0000   0.0000  -8.2118
  -2.400   0.0133   0.01416   0.00675  -0.0546  0.9390  0.0690  -1.9182   0.0000   0.0000   0.0000   4.3934
  -2.300   0.0332   0.01373   0.00639  -0.0563  0.9375  0.0746  -1.7694   0.0000   0.0000   0.0000   1.9647
  -2.200   0.0383   0.01352   0.00616  -0.0548  0.9297  0.0785  -1.6953   0.0000   0.0000   0.0000   1.6950
  -2.100   0.0522   0.01313   0.00583  -0.0553  0.9250  0.0849  -1.5786   0.0000   0.0000   0.0000   1.3186
  -2.000   0.0689   0.01275   0.00549  -0.0562  0.9214  0.0952  -1.4550   0.0000   0.0000   0.0000   1.0732
  -1.900   0.0865   0.01229   0.00512  -0.0574  0.9182  0.1131  -1.3463   0.0000   0.0000   0.0000   0.9191
  -1.800   0.1027   0.01147   0.00476  -0.0586  0.9150  0.1974  -1.2500   0.0000   0.0000   0.0000   0.8248
  -1.700   0.1126   0.01007   0.00468  -0.0588  0.9118  0.5386  -1.1902   0.0000   0.0000   0.0000   0.7760
  -1.600   0.1266   0.00955   0.00460  -0.0590  0.9088  0.6683  -1.1252   0.0000   0.0000   0.0000   0.7184
  -1.500   0.1309   0.00930   0.00456  -0.0571  0.8990  0.7240  -1.0847   0.0000   0.0000   0.0000   0.6884
  -1.400   0.1414   0.00899   0.00448  -0.0562  0.8921  0.7948  -1.0272   0.0000   0.0000   0.0000   0.6495
  -1.300   0.1711   0.00875   0.00444  -0.0590  0.8884  0.9019  -0.9191   0.0000   0.0000   0.0000   0.5962
  -1.200   0.2191   0.00865   0.00429  -0.0661  0.8857  0.9641  -0.7761   0.0000   0.0000   0.0000   0.5522
  -1.100   0.2552   0.00855   0.00409  -0.0709  0.8805  0.9884  -0.6698   0.0000   0.0000   0.0000   0.5283
  -1.000   0.2855   0.00851   0.00397  -0.0746  0.8696  1.0000  -0.5788   0.0000   0.0000   0.0000   0.5116
  -0.900   0.3001   0.00838   0.00375  -0.0751  0.8573  1.0000  -0.5633   0.0000   0.0000   0.0000   0.5004
  -0.800   0.3099   0.00832   0.00360  -0.0747  0.8410  1.0000  -0.5728   0.0000   0.0000   0.0000   0.4910
  -0.700   0.3210   0.00826   0.00343  -0.0745  0.8248  1.0000  -0.5833   0.0000   0.0000   0.0000   0.4818
  -0.600   0.3315   0.00823   0.00328  -0.0741  0.8075  1.0000  -0.5938   0.0000   0.0000   0.0000   0.4733
  -0.500   0.3403   0.00823   0.00317  -0.0735  0.7885  1.0000  -0.6035   0.0000   0.0000   0.0000   0.4655
  -0.400   0.3490   0.00826   0.00306  -0.0728  0.7702  1.0000  -0.6134   0.0000   0.0000   0.0000   0.4581
  -0.300   0.3576   0.00830   0.00298  -0.0722  0.7529  1.0000  -0.6236   0.0000   0.0000   0.0000   0.4511
  -0.200   0.3662   0.00837   0.00292  -0.0715  0.7371  1.0000  -0.6339   0.0000   0.0000   0.0000   0.4444
  -0.100   0.3747   0.00844   0.00286  -0.0709  0.7228  1.0000  -0.6447   0.0000   0.0000   0.0000   0.4381
   0.000   0.3833   0.00853   0.00283  -0.0702  0.7095  1.0000  -0.6555   0.0000   0.0000   0.0000   0.4322
   0.100   0.3919   0.00861   0.00281  -0.0697  0.6974  1.0000  -0.6670   0.0000   0.0000   0.0000   0.4266
   0.200   0.4007   0.00871   0.00279  -0.0691  0.6870  1.0000  -0.6787   0.0000   0.0000   0.0000   0.4212
   0.300   0.4095   0.00880   0.00279  -0.0686  0.6769  1.0000  -0.6910   0.0000   0.0000   0.0000   0.4161
   0.400   0.4185   0.00889   0.00279  -0.0681  0.6679  1.0000  -0.7035   0.0000   0.0000   0.0000   0.4112
   0.500   0.4276   0.00899   0.00280  -0.0676  0.6595  1.0000  -0.7164   0.0000   0.0000   0.0000   0.4065
   0.600   0.4367   0.00909   0.00281  -0.0671  0.6517  1.0000  -0.7298   0.0000   0.0000   0.0000   0.4021
   0.700   0.4459   0.00919   0.00283  -0.0667  0.6442  1.0000  -0.7433   0.0000   0.0000   0.0000   0.3978
   0.800   0.4552   0.00929   0.00285  -0.0663  0.6375  1.0000  -0.7574   0.0000   0.0000   0.0000   0.3938
   0.900   0.4646   0.00938   0.00288  -0.0659  0.6305  1.0000  -0.7718   0.0000   0.0000   0.0000   0.3899
   1.000   0.4740   0.00950   0.00291  -0.0655  0.6247  1.0000  -0.7864   0.0000   0.0000   0.0000   0.3861
   1.100   0.4834   0.00957   0.00295  -0.0651  0.6180  1.0000  -0.8009   0.0000   0.0000   0.0000   0.3826
   1.200   0.4929   0.00967   0.00299  -0.0647  0.6122  1.0000  -0.8165   0.0000   0.0000   0.0000   0.3792
   1.300   0.5025   0.00977   0.00303  -0.0644  0.6065  1.0000  -0.8322   0.0000   0.0000   0.0000   0.3759
   1.400   0.5121   0.00986   0.00308  -0.0640  0.6005  1.0000  -0.8479   0.0000   0.0000   0.0000   0.3727
   1.500   0.5218   0.00997   0.00311  -0.0637  0.5954  1.0000  -0.8639   0.0000   0.0000   0.0000   0.3697
   1.600   0.5314   0.01005   0.00317  -0.0634  0.5897  1.0000  -0.8798   0.0000   0.0000   0.0000   0.3668
   1.700   0.5411   0.01014   0.00322  -0.0631  0.5842  1.0000  -0.8966   0.0000   0.0000   0.0000   0.3639
   1.800   0.5509   0.01026   0.00326  -0.0628  0.5796  1.0000  -0.9138   0.0000   0.0000   0.0000   0.3612
   1.900   0.5607   0.01032   0.00333  -0.0624  0.5740  1.0000  -0.9308   0.0000   0.0000   0.0000   0.3586
   2.000   0.5705   0.01040   0.00338  -0.0621  0.5687  1.0000  -0.9481   0.0000   0.0000   0.0000   0.3561
   2.100   0.5804   0.01052   0.00342  -0.0619  0.5643  1.0000  -0.9656   0.0000   0.0000   0.0000   0.3536
   2.200   0.5902   0.01058   0.00349  -0.0616  0.5588  1.0000  -0.9829   0.0000   0.0000   0.0000   0.3513
   2.300   0.6000   0.01066   0.00354  -0.0613  0.5538  1.0000  -1.0004   0.0000   0.0000   0.0000   0.3490
   2.400   0.6100   0.01077   0.00358  -0.0610  0.5495  1.0000  -1.0191   0.0000   0.0000   0.0000   0.3468
   2.500   0.6198   0.01084   0.00365  -0.0607  0.5442  1.0000  -1.0376   0.0000   0.0000   0.0000   0.3447
   2.600   0.6297   0.01091   0.00371  -0.0604  0.5392  1.0000  -1.0565   0.0000   0.0000   0.0000   0.3426
   2.700   0.6397   0.01101   0.00375  -0.0602  0.5349  1.0000  -1.0756   0.0000   0.0000   0.0000   0.3406
   2.800   0.6496   0.01108   0.00382  -0.0599  0.5299  1.0000  -1.0945   0.0000   0.0000   0.0000   0.3387
   2.900   0.6595   0.01115   0.00390  -0.0596  0.5248  1.0000  -1.1135   0.0000   0.0000   0.0000   0.3368
   3.000   0.6695   0.01124   0.00395  -0.0593  0.5205  1.0000  -1.1328   0.0000   0.0000   0.0000   0.3349
   3.100   0.6795   0.01132   0.00402  -0.0591  0.5157  1.0000  -1.1528   0.0000   0.0000   0.0000   0.3332
   3.200   0.6894   0.01138   0.00408  -0.0588  0.5106  1.0000  -1.1732   0.0000   0.0000   0.0000   0.3314
   3.300   0.6994   0.01146   0.00413  -0.0585  0.5062  1.0000  -1.1939   0.0000   0.0000   0.0000   0.3297
   3.400   0.7093   0.01155   0.00420  -0.0583  0.5016  1.0000  -1.2146   0.0000   0.0000   0.0000   0.3281
   3.500   0.7192   0.01161   0.00427  -0.0580  0.4964  1.0000  -1.2352   0.0000   0.0000   0.0000   0.3265
   3.600   0.7292   0.01168   0.00434  -0.0578  0.4918  1.0000  -1.2563   0.0000   0.0000   0.0000   0.3249
   3.700   0.7392   0.01178   0.00440  -0.0575  0.4874  1.0000  -1.2786   0.0000   0.0000   0.0000   0.3234
   3.800   0.7490   0.01183   0.00448  -0.0572  0.4819  1.0000  -1.3007   0.0000   0.0000   0.0000   0.3219
   3.900   0.7589   0.01191   0.00454  -0.0569  0.4771  1.0000  -1.3231   0.0000   0.0000   0.0000   0.3205
   4.000   0.7689   0.01200   0.00460  -0.0567  0.4727  1.0000  -1.3457   0.0000   0.0000   0.0000   0.3191
   4.100   0.7787   0.01206   0.00469  -0.0564  0.4671  1.0000  -1.3684   0.0000   0.0000   0.0000   0.3177
   4.200   0.7885   0.01213   0.00474  -0.0561  0.4622  1.0000  -1.3925   0.0000   0.0000   0.0000   0.3163
   4.300   0.7984   0.01222   0.00481  -0.0558  0.4574  1.0000  -1.4167   0.0000   0.0000   0.0000   0.3150
   4.400   0.8081   0.01228   0.00491  -0.0556  0.4515  1.0000  -1.4407   0.0000   0.0000   0.0000   0.3137
   4.500   0.8179   0.01236   0.00497  -0.0553  0.4466  1.0000  -1.4652   0.0000   0.0000   0.0000   0.3124
   4.600   0.8277   0.01244   0.00505  -0.0550  0.4412  1.0000  -1.4910   0.0000   0.0000   0.0000   0.3112
   4.700   0.8374   0.01250   0.00513  -0.0547  0.4353  1.0000  -1.5169   0.0000   0.0000   0.0000   0.3099
   4.800   0.8471   0.01260   0.00519  -0.0544  0.4303  1.0000  -1.5431   0.0000   0.0000   0.0000   0.3087
   4.900   0.8567   0.01266   0.00528  -0.0541  0.4240  1.0000  -1.5695   0.0000   0.0000   0.0000   0.3075
   5.000   0.8663   0.01274   0.00535  -0.0537  0.4181  1.0000  -1.5974   0.0000   0.0000   0.0000   0.3063
   5.100   0.8758   0.01283   0.00543  -0.0534  0.4123  1.0000  -1.6253   0.0000   0.0000   0.0000   0.3052
   5.200   0.8854   0.01289   0.00554  -0.0531  0.4056  1.0000  -1.6533   0.0000   0.0000   0.0000   0.3041
   5.300   0.8947   0.01300   0.00560  -0.0527  0.3999  1.0000  -1.6830   0.0000   0.0000   0.0000   0.3029
   5.400   0.9042   0.01306   0.00571  -0.0524  0.3924  1.0000  -1.7130   0.0000   0.0000   0.0000   0.3018
   5.500   0.9134   0.01318   0.00577  -0.0520  0.3863  1.0000  -1.7430   0.0000   0.0000   0.0000   0.3007
   5.600   0.9228   0.01325   0.00589  -0.0517  0.3784  1.0000  -1.7745   0.0000   0.0000   0.0000   0.2996
   5.700   0.9319   0.01336   0.00596  -0.0513  0.3719  1.0000  -1.8066   0.0000   0.0000   0.0000   0.2986
   5.800   0.9412   0.01344   0.00608  -0.0509  0.3635  1.0000  -1.8390   0.0000   0.0000   0.0000   0.2975
   5.900   0.9500   0.01357   0.00616  -0.0505  0.3564  1.0000  -1.8727   0.0000   0.0000   0.0000   0.2964
   6.000   0.9592   0.01366   0.00629  -0.0501  0.3476  1.0000  -1.9076   0.0000   0.0000   0.0000   0.2954
   6.100   0.9680   0.01379   0.00640  -0.0497  0.3395  1.0000  -1.9422   0.0000   0.0000   0.0000   0.2944
   6.200   0.9767   0.01392   0.00651  -0.0492  0.3310  1.0000  -1.9787   0.0000   0.0000   0.0000   0.2934
   6.300   0.9856   0.01405   0.00664  -0.0488  0.3222  1.0000  -2.0162   0.0000   0.0000   0.0000   0.2924
   6.400   0.9938   0.01421   0.00675  -0.0483  0.3132  1.0000  -2.0531   0.0000   0.0000   0.0000   0.2913
   6.500   1.0019   0.01435   0.00686  -0.0478  0.3020  1.0000  -2.0927   0.0000   0.0000   0.0000   0.2903
   6.600   1.0099   0.01450   0.00697  -0.0473  0.2895  1.0000  -2.1327   0.0000   0.0000   0.0000   0.2893
   6.700   1.0176   0.01466   0.00708  -0.0467  0.2765  1.0000  -2.1726   0.0000   0.0000   0.0000   0.2882
   6.800   1.0252   0.01485   0.00722  -0.0461  0.2635  1.0000  -2.2154   0.0000   0.0000   0.0000   0.2872
   6.900   1.0327   0.01505   0.00736  -0.0456  0.2507  1.0000  -2.2587   0.0000   0.0000   0.0000   0.2862
   7.000   1.0404   0.01526   0.00752  -0.0451  0.2390  1.0000  -2.3023   0.0000   0.0000   0.0000   0.2853
   7.100   1.0481   0.01548   0.00769  -0.0445  0.2292  1.0000  -2.3485   0.0000   0.0000   0.0000   0.2843
   7.200   1.0558   0.01571   0.00787  -0.0440  0.2215  1.0000  -2.4513   0.0000   0.0000   0.0000   0.2834
   7.300   1.0642   0.01590   0.00807  -0.0436  0.2147  1.0000  -2.5627   0.0000   0.0000   0.0000   0.2825
   7.400   1.0718   0.01613   0.00827  -0.0430  0.2085  1.0000  -2.6720   0.0000   0.0000   0.0000   0.2816
   7.500   1.0802   0.01632   0.00847  -0.0426  0.2023  1.0000  -2.7865   0.0000   0.0000   0.0000   0.2808
   7.600   1.0878   0.01655   0.00869  -0.0421  0.1966  1.0000  -2.8991   0.0000   0.0000   0.0000   0.2799
   7.700   1.0959   0.01675   0.00891  -0.0416  0.1911  1.0000  -3.0157   0.0000   0.0000   0.0000   0.2790
   7.800   1.1037   0.01696   0.00912  -0.0411  0.1857  1.0000  -3.1320   0.0000   0.0000   0.0000   0.2782
   7.900   1.1112   0.01719   0.00934  -0.0405  0.1810  1.0000  -3.2477   0.0000   0.0000   0.0000   0.2773
   8.000   1.1193   0.01739   0.00956  -0.0400  0.1759  1.0000  -3.3679   0.0000   0.0000   0.0000   0.2765
   8.100   1.1264   0.01764   0.00979  -0.0394  0.1715  1.0000  -3.4829   0.0000   0.0000   0.0000   0.2755
   8.200   1.1344   0.01783   0.01001  -0.0389  0.1658  1.0000  -3.6052   0.0000   0.0000   0.0000   0.2747
   8.300   1.1411   0.01808   0.01023  -0.0383  0.1596  1.0000  -3.7208   0.0000   0.0000   0.0000   0.2738
   8.400   1.1489   0.01827   0.01043  -0.0378  0.1522  1.0000  -3.8443   0.0000   0.0000   0.0000   0.2731
   8.500   1.1557   0.01851   0.01066  -0.0372  0.1457  1.0000  -3.9619   0.0000   0.0000   0.0000   0.2722
   8.600   1.1631   0.01872   0.01088  -0.0366  0.1402  1.0000  -4.0841   0.0000   0.0000   0.0000   0.2714
   8.700   1.1696   0.01898   0.01113  -0.0360  0.1363  1.0000  -4.2002   0.0000   0.0000   0.0000   0.2705
   8.800   1.1774   0.01917   0.01136  -0.0354  0.1319  1.0000  -4.3245   0.0000   0.0000   0.0000   0.2697
   8.900   1.1840   0.01941   0.01161  -0.0348  0.1278  1.0000  -4.4420   0.0000   0.0000   0.0000   0.2688
   9.000   1.1909   0.01964   0.01186  -0.0341  0.1239  1.0000  -4.5606   0.0000   0.0000   0.0000   0.2680
   9.100   1.1976   0.01987   0.01210  -0.0335  0.1182  1.0000  -4.6789   0.0000   0.0000   0.0000   0.2671
   9.200   1.2039   0.02012   0.01233  -0.0328  0.1113  1.0000  -4.7956   0.0000   0.0000   0.0000   0.2663
   9.300   1.2095   0.02040   0.01259  -0.0320  0.1054  1.0000  -4.9060   0.0000   0.0000   0.0000   0.2653
   9.400   1.2163   0.02062   0.01285  -0.0314  0.1008  1.0000  -5.0227   0.0000   0.0000   0.0000   0.2645
   9.500   1.2217   0.02090   0.01313  -0.0305  0.0968  1.0000  -5.1298   0.0000   0.0000   0.0000   0.2636
   9.600   1.2277   0.02115   0.01340  -0.0298  0.0906  1.0000  -5.2401   0.0000   0.0000   0.0000   0.2627
   9.700   1.2326   0.02146   0.01368  -0.0289  0.0829  1.0000  -5.3416   0.0000   0.0000   0.0000   0.2617
   9.800   1.2372   0.02177   0.01398  -0.0280  0.0773  1.0000  -5.4391   0.0000   0.0000   0.0000   0.2607
   9.900   1.2409   0.02212   0.01430  -0.0269  0.0701  1.0000  -5.5285   0.0000   0.0000   0.0000   0.2597
  10.000   1.2430   0.02251   0.01463  -0.0256  0.0616  1.0000  -5.6054   0.0000   0.0000   0.0000   0.2584
  10.100   1.2438   0.02292   0.01500  -0.0240  0.0535  1.0000  -5.6718   0.0000   0.0000   0.0000   0.2571
  10.200   1.2425   0.02344   0.01543  -0.0222  0.0440  1.0000  -5.7234   0.0000   0.0000   0.0000   0.2555
  10.300   1.2405   0.02401   0.01592  -0.0204  0.0346  1.0000  -5.7678   0.0000   0.0000   0.0000   0.2539
  10.400   1.2374   0.02465   0.01649  -0.0184  0.0255  1.0000  -5.8042   0.0000   0.0000   0.0000   0.2522
  10.500   1.2341   0.02531   0.01710  -0.0165  0.0179  1.0000  -5.8366   0.0000   0.0000   0.0000   0.2506
  10.600   1.2306   0.02598   0.01773  -0.0146  0.0129  1.0000  -5.8680   0.0000   0.0000   0.0000   0.2489
  10.700   1.2283   0.02661   0.01836  -0.0129  0.0102  1.0000  -5.9056   0.0000   0.0000   0.0000   0.2474
  10.800   1.2264   0.02722   0.01900  -0.0112  0.0089  1.0000  -5.9473   0.0000   0.0000   0.0000   0.2460
  10.900   1.2256   0.02778   0.01960  -0.0098  0.0081  1.0000  -5.9964   0.0000   0.0000   0.0000   0.2446
  11.000   1.2252   0.02833   0.02021  -0.0085  0.0075  1.0000  -6.0491   0.0000   0.0000   0.0000   0.2434
  11.100   1.2244   0.02891   0.02083  -0.0071  0.0071  1.0000  -6.1021   0.0000   0.0000   0.0000   0.2422
  11.200   1.2235   0.02951   0.02148  -0.0059  0.0068  1.0000  -6.1546   0.0000   0.0000   0.0000   0.2410
  11.300   1.2223   0.03015   0.02217  -0.0046  0.0066  1.0000  -6.2051   0.0000   0.0000   0.0000   0.2398
  11.400   1.2207   0.03082   0.02291  -0.0034  0.0064  1.0000  -6.2517   0.0000   0.0000   0.0000   0.2386
  11.500   1.2199   0.03147   0.02361  -0.0023  0.0062  1.0000  -6.3036   0.0000   0.0000   0.0000   0.2376
  11.600   1.2192   0.03212   0.02432  -0.0013  0.0061  1.0000  -6.3568   0.0000   0.0000   0.0000   0.2366
  11.700   1.2183   0.03280   0.02508  -0.0003  0.0060  1.0000  -6.4088   0.0000   0.0000   0.0000   0.2356
  11.800   1.2171   0.03352   0.02586   0.0006  0.0059  1.0000  -6.4590   0.0000   0.0000   0.0000   0.2347
  11.900   1.2157   0.03427   0.02669   0.0015  0.0058  1.0000  -6.5078   0.0000   0.0000   0.0000   0.2338
  12.000   1.2141   0.03507   0.02755   0.0023  0.0057  1.0000  -6.5548   0.0000   0.0000   0.0000   0.2329
  12.100   1.2123   0.03591   0.02846   0.0031  0.0056  1.0000  -6.5997   0.0000   0.0000   0.0000   0.2321
  12.200   1.2103   0.03679   0.02941   0.0038  0.0056  1.0000  -6.6427   0.0000   0.0000   0.0000   0.2314
  12.300   1.2080   0.03772   0.03041   0.0044  0.0055  1.0000  -6.6836   0.0000   0.0000   0.0000   0.2307
  12.400   1.2056   0.03871   0.03146   0.0049  0.0054  1.0000  -6.7225   0.0000   0.0000   0.0000   0.2301
  12.500   1.2030   0.03974   0.03257   0.0054  0.0054  1.0000  -6.7595   0.0000   0.0000   0.0000   0.2295
  12.600   1.2003   0.04084   0.03373   0.0057  0.0053  1.0000  -6.7944   0.0000   0.0000   0.0000   0.2290
  12.700   1.1973   0.04199   0.03495   0.0060  0.0053  1.0000  -6.8271   0.0000   0.0000   0.0000   0.2286
  12.800   1.1942   0.04320   0.03623   0.0062  0.0053  1.0000  -6.8576   0.0000   0.0000   0.0000   0.2283
  12.900   1.1910   0.04447   0.03757   0.0063  0.0052  1.0000  -6.8858   0.0000   0.0000   0.0000   0.2280
  13.000   1.1876   0.04581   0.03897   0.0063  0.0052  1.0000  -6.9120   0.0000   0.0000   0.0000   0.2278
  13.100   1.1841   0.04720   0.04044   0.0062  0.0052  1.0000  -6.9361   0.0000   0.0000   0.0000   0.2277
  13.200   1.1805   0.04866   0.04196   0.0060  0.0052  1.0000  -6.9581   0.0000   0.0000   0.0000   0.2276
  13.300   1.1767   0.05017   0.04354   0.0058  0.0051  1.0000  -6.9779   0.0000   0.0000   0.0000   0.2276
  13.400   1.1728   0.05173   0.04517   0.0055  0.0051  1.0000  -6.9957   0.0000   0.0000   0.0000   0.2277
  13.500   1.1688   0.05335   0.04685   0.0051  0.0051  1.0000  -7.0110   0.0000   0.0000   0.0000   0.2278
  13.600   1.1646   0.05502   0.04858   0.0047  0.0051  1.0000  -7.0240   0.0000   0.0000   0.0000   0.2279
  13.700   1.1603   0.05674   0.05037   0.0042  0.0051  1.0000  -7.0349   0.0000   0.0000   0.0000   0.2282
  13.800   1.1559   0.05851   0.05220   0.0036  0.0051  1.0000  -7.0435   0.0000   0.0000   0.0000   0.2284
  13.900   1.1513   0.06033   0.05409   0.0030  0.0050  1.0000  -7.0500   0.0000   0.0000   0.0000   0.2287
  14.000   1.1467   0.06220   0.05602   0.0024  0.0050  1.0000  -7.0543   0.0000   0.0000   0.0000   0.2291
  14.100   1.1419   0.06412   0.05800   0.0017  0.0050  1.0000  -7.0564   0.0000   0.0000   0.0000   0.2295
  14.200   1.1371   0.06609   0.06003   0.0009  0.0050  1.0000  -7.0565   0.0000   0.0000   0.0000   0.2300
  14.300   1.1322   0.06810   0.06210   0.0002  0.0050  1.0000  -7.0546   0.0000   0.0000   0.0000   0.2305
  14.400   1.1272   0.07016   0.06422  -0.0007  0.0050  1.0000  -7.0506   0.0000   0.0000   0.0000   0.2311
  14.500   1.1221   0.07227   0.06639  -0.0016  0.0050  1.0000  -7.0445   0.0000   0.0000   0.0000   0.2317
  14.600   1.1170   0.07443   0.06860  -0.0025  0.0050  1.0000  -7.0365   0.0000   0.0000   0.0000   0.2324
  14.700   1.1119   0.07662   0.07086  -0.0035  0.0050  1.0000  -7.0269   0.0000   0.0000   0.0000   0.2331
  14.800   1.1068   0.07885   0.07314  -0.0045  0.0050  1.0000  -7.0158   0.0000   0.0000   0.0000   0.2339
  14.900   1.1017   0.08113   0.07547  -0.0056  0.0050  1.0000  -7.0030   0.0000   0.0000   0.0000   0.2347
  15.000   1.0966   0.08344   0.07785  -0.0067  0.0050  1.0000  -6.9885   0.0000   0.0000   0.0000   0.2355


