xflr5 v6.59

 Calculated polar for: SF-14

 1 1 Reynolds number fixed          Mach number fixed         

 xtrf =   1.000 (top)        1.000 (bottom)
 Mach =   0.050     Re =     1.000 e 6     Ncrit =   5.000

  alpha     CL        CD       CDp       Cm    Top Xtr Bot Xtr   Cpmin    Chinge    XCp    
 ------- -------- --------- --------- -------- ------- ------- -------- --------- ---------
  -3.000   0.4517   0.00843   0.00210  -0.1688  0.6100  0.0262  -2.0690   0.0000   0.0000   0.0000   0.6278
  -2.900   0.4628   0.00839   0.00205  -0.1688  0.6075  0.0270  -1.9938   0.0000   0.0000   0.0000   0.6186
  -2.800   0.4737   0.00836   0.00201  -0.1688  0.6049  0.0280  -1.9191   0.0000   0.0000   0.0000   0.6098
  -2.700   0.4846   0.00833   0.00197  -0.1687  0.6022  0.0291  -1.8452   0.0000   0.0000   0.0000   0.6015
  -2.600   0.4954   0.00832   0.00193  -0.1687  0.5995  0.0301  -1.7726   0.0000   0.0000   0.0000   0.5936
  -2.500   0.5061   0.00832   0.00190  -0.1686  0.5969  0.0312  -1.7008   0.0000   0.0000   0.0000   0.5860
  -2.400   0.5171   0.00829   0.00187  -0.1686  0.5946  0.0324  -1.6293   0.0000   0.0000   0.0000   0.5787
  -2.300   0.5281   0.00826   0.00184  -0.1686  0.5923  0.0340  -1.5582   0.0000   0.0000   0.0000   0.5716
  -2.200   0.5391   0.00824   0.00181  -0.1686  0.5898  0.0354  -1.4881   0.0000   0.0000   0.0000   0.5649
  -2.100   0.5500   0.00823   0.00179  -0.1685  0.5872  0.0367  -1.4193   0.0000   0.0000   0.0000   0.5584
  -2.000   0.5608   0.00822   0.00176  -0.1685  0.5847  0.0380  -1.3517   0.0000   0.0000   0.0000   0.5522
  -1.900   0.5716   0.00820   0.00174  -0.1684  0.5823  0.0397  -1.2901   0.0000   0.0000   0.0000   0.5463
  -1.800   0.5823   0.00820   0.00172  -0.1684  0.5800  0.0415  -1.2328   0.0000   0.0000   0.0000   0.5406
  -1.700   0.5932   0.00819   0.00170  -0.1683  0.5779  0.0431  -1.1755   0.0000   0.0000   0.0000   0.5350
  -1.600   0.6042   0.00817   0.00169  -0.1683  0.5758  0.0455  -1.1187   0.0000   0.0000   0.0000   0.5297
  -1.500   0.6152   0.00816   0.00167  -0.1683  0.5735  0.0480  -1.0626   0.0000   0.0000   0.0000   0.5245
  -1.400   0.6260   0.00815   0.00166  -0.1683  0.5710  0.0502  -1.0075   0.0000   0.0000   0.0000   0.5195
  -1.300   0.6368   0.00814   0.00164  -0.1682  0.5685  0.0529  -0.9544   0.0000   0.0000   0.0000   0.5148
  -1.200   0.6475   0.00814   0.00163  -0.1682  0.5661  0.0554  -0.9628   0.0000   0.0000   0.0000   0.5101
  -1.100   0.6581   0.00815   0.00162  -0.1681  0.5637  0.0579  -0.9711   0.0000   0.0000   0.0000   0.5057
  -1.000   0.6689   0.00814   0.00162  -0.1680  0.5617  0.0612  -0.9795   0.0000   0.0000   0.0000   0.5013
  -0.900   0.6799   0.00813   0.00161  -0.1680  0.5598  0.0645  -0.9881   0.0000   0.0000   0.0000   0.4971
  -0.800   0.6908   0.00812   0.00161  -0.1680  0.5578  0.0684  -0.9966   0.0000   0.0000   0.0000   0.4930
  -0.700   0.7017   0.00811   0.00160  -0.1680  0.5556  0.0719  -1.0052   0.0000   0.0000   0.0000   0.4890
  -0.600   0.7124   0.00811   0.00160  -0.1679  0.5534  0.0758  -1.0136   0.0000   0.0000   0.0000   0.4852
  -0.500   0.7231   0.00811   0.00160  -0.1679  0.5510  0.0796  -1.0221   0.0000   0.0000   0.0000   0.4815
  -0.400   0.7337   0.00812   0.00161  -0.1678  0.5488  0.0846  -1.0304   0.0000   0.0000   0.0000   0.4779
  -0.300   0.7442   0.00813   0.00161  -0.1677  0.5465  0.0894  -1.0388   0.0000   0.0000   0.0000   0.4744
  -0.200   0.7551   0.00813   0.00161  -0.1677  0.5447  0.0945  -1.0473   0.0000   0.0000   0.0000   0.4710
  -0.100   0.7659   0.00812   0.00162  -0.1676  0.5427  0.0997  -1.0560   0.0000   0.0000   0.0000   0.4677
   0.000   0.7767   0.00812   0.00162  -0.1676  0.5406  0.1054  -1.0649   0.0000   0.0000   0.0000   0.4644
   0.100   0.7874   0.00812   0.00163  -0.1675  0.5384  0.1120  -1.0737   0.0000   0.0000   0.0000   0.4613
   0.200   0.7981   0.00812   0.00164  -0.1675  0.5363  0.1188  -1.0824   0.0000   0.0000   0.0000   0.4583
   0.300   0.8087   0.00813   0.00166  -0.1674  0.5342  0.1254  -1.0911   0.0000   0.0000   0.0000   0.4553
   0.400   0.8192   0.00814   0.00167  -0.1673  0.5322  0.1330  -1.0998   0.0000   0.0000   0.0000   0.4524
   0.500   0.8296   0.00815   0.00169  -0.1672  0.5302  0.1413  -1.1084   0.0000   0.0000   0.0000   0.4496
   0.600   0.8404   0.00814   0.00170  -0.1672  0.5285  0.1501  -1.1173   0.0000   0.0000   0.0000   0.4468
   0.700   0.8512   0.00814   0.00172  -0.1672  0.5266  0.1593  -1.1262   0.0000   0.0000   0.0000   0.4441
   0.800   0.8618   0.00814   0.00174  -0.1671  0.5246  0.1694  -1.1350   0.0000   0.0000   0.0000   0.4415
   0.900   0.8724   0.00814   0.00176  -0.1670  0.5225  0.1797  -1.1438   0.0000   0.0000   0.0000   0.4389
   1.000   0.8830   0.00815   0.00178  -0.1670  0.5203  0.1907  -1.1525   0.0000   0.0000   0.0000   0.4365
   1.100   0.8934   0.00816   0.00181  -0.1669  0.5182  0.2024  -1.1612   0.0000   0.0000   0.0000   0.4340
   1.200   0.9037   0.00817   0.00184  -0.1668  0.5162  0.2148  -1.1700   0.0000   0.0000   0.0000   0.4316
   1.300   0.9139   0.00819   0.00187  -0.1666  0.5143  0.2281  -1.1789   0.0000   0.0000   0.0000   0.4293
   1.400   0.9247   0.00818   0.00190  -0.1666  0.5128  0.2424  -1.1881   0.0000   0.0000   0.0000   0.4270
   1.500   0.9353   0.00817   0.00192  -0.1666  0.5111  0.2580  -1.1973   0.0000   0.0000   0.0000   0.4248
   1.600   0.9459   0.00817   0.00195  -0.1665  0.5093  0.2757  -1.2064   0.0000   0.0000   0.0000   0.4226
   1.700   0.9564   0.00816   0.00198  -0.1664  0.5073  0.2945  -1.2154   0.0000   0.0000   0.0000   0.4205
   1.800   0.9668   0.00816   0.00202  -0.1663  0.5053  0.3172  -1.2245   0.0000   0.0000   0.0000   0.4184
   1.900   0.9770   0.00815   0.00206  -0.1662  0.5032  0.3449  -1.2334   0.0000   0.0000   0.0000   0.4164
   2.000   0.9871   0.00812   0.00210  -0.1661  0.5012  0.3827  -1.2423   0.0000   0.0000   0.0000   0.4144
   2.100   0.9970   0.00806   0.00217  -0.1660  0.4993  0.4508  -1.2510   0.0000   0.0000   0.0000   0.4125
   2.200   1.0057   0.00765   0.00232  -0.1658  0.4977  0.7039  -1.2590   0.0000   0.0000   0.0000   0.4107
   2.400   1.0259   0.00721   0.00241  -0.1654  0.4944  1.0000  -1.2775   0.0000   0.0000   0.0000   0.4068
   2.500   1.0363   0.00725   0.00244  -0.1652  0.4926  1.0000  -1.2869   0.0000   0.0000   0.0000   0.4049
   2.600   1.0466   0.00729   0.00247  -0.1651  0.4907  1.0000  -1.2962   0.0000   0.0000   0.0000   0.4031
   2.700   1.0568   0.00734   0.00250  -0.1650  0.4888  1.0000  -1.3055   0.0000   0.0000   0.0000   0.4013
   2.800   1.0668   0.00739   0.00255  -0.1648  0.4869  1.0000  -1.3147   0.0000   0.0000   0.0000   0.3995
   2.900   1.0768   0.00744   0.00259  -0.1646  0.4850  1.0000  -1.3238   0.0000   0.0000   0.0000   0.3978
   3.000   1.0867   0.00750   0.00262  -0.1644  0.4832  1.0000  -1.3330   0.0000   0.0000   0.0000   0.3961
   3.100   1.0971   0.00753   0.00266  -0.1643  0.4816  1.0000  -1.3424   0.0000   0.0000   0.0000   0.3944
   3.200   1.1074   0.00757   0.00269  -0.1641  0.4800  1.0000  -1.3520   0.0000   0.0000   0.0000   0.3928
   3.300   1.1176   0.00761   0.00273  -0.1640  0.4782  1.0000  -1.3617   0.0000   0.0000   0.0000   0.3912
   3.400   1.1277   0.00765   0.00276  -0.1638  0.4765  1.0000  -1.3713   0.0000   0.0000   0.0000   0.3896
   3.500   1.1377   0.00770   0.00280  -0.1637  0.4746  1.0000  -1.3808   0.0000   0.0000   0.0000   0.3880
   3.600   1.1476   0.00775   0.00284  -0.1635  0.4727  1.0000  -1.3903   0.0000   0.0000   0.0000   0.3865
   3.700   1.1573   0.00781   0.00289  -0.1632  0.4709  1.0000  -1.3997   0.0000   0.0000   0.0000   0.3849
   3.800   1.1668   0.00787   0.00294  -0.1630  0.4691  1.0000  -1.4089   0.0000   0.0000   0.0000   0.3834
   3.900   1.1767   0.00792   0.00299  -0.1627  0.4675  1.0000  -1.4184   0.0000   0.0000   0.0000   0.3819
   4.000   1.1868   0.00796   0.00303  -0.1626  0.4659  1.0000  -1.4282   0.0000   0.0000   0.0000   0.3805
   4.100   1.1968   0.00800   0.00307  -0.1624  0.4643  1.0000  -1.4382   0.0000   0.0000   0.0000   0.3791
   4.200   1.2067   0.00804   0.00312  -0.1622  0.4626  1.0000  -1.4481   0.0000   0.0000   0.0000   0.3776
   4.300   1.2165   0.00809   0.00317  -0.1620  0.4608  1.0000  -1.4579   0.0000   0.0000   0.0000   0.3763
   4.400   1.2261   0.00815   0.00322  -0.1617  0.4590  1.0000  -1.4676   0.0000   0.0000   0.0000   0.3749
   4.500   1.2355   0.00820   0.00327  -0.1615  0.4571  1.0000  -1.4772   0.0000   0.0000   0.0000   0.3735
   4.700   1.2526   0.00837   0.00339  -0.1605  0.4458  1.0000  -1.4953   0.0000   0.0000   0.0000   0.3707
   4.800   1.2592   0.00852   0.00347  -0.1597  0.4351  1.0000  -1.5035   0.0000   0.0000   0.0000   0.3692
   4.900   1.2651   0.00870   0.00357  -0.1588  0.4222  1.0000  -1.5111   0.0000   0.0000   0.0000   0.3677
   5.000   1.2705   0.00889   0.00367  -0.1577  0.4082  1.0000  -1.5185   0.0000   0.0000   0.0000   0.3662
   5.100   1.2744   0.00913   0.00382  -0.1564  0.3889  1.0000  -1.5248   0.0000   0.0000   0.0000   0.3647
   5.200   1.2801   0.00927   0.00391  -0.1554  0.3819  1.0000  -1.5323   0.0000   0.0000   0.0000   0.3632
   5.300   1.2864   0.00937   0.00399  -0.1544  0.3751  1.0000  -1.5402   0.0000   0.0000   0.0000   0.3618
   5.400   1.2911   0.00951   0.00409  -0.1532  0.3681  1.0000  -1.5469   0.0000   0.0000   0.0000   0.3602
   5.500   1.2966   0.00963   0.00418  -0.1521  0.3602  1.0000  -1.5543   0.0000   0.0000   0.0000   0.3588
   5.600   1.3014   0.00978   0.00429  -0.1509  0.3520  1.0000  -1.5613   0.0000   0.0000   0.0000   0.3573
   5.700   1.3058   0.00996   0.00441  -0.1497  0.3422  1.0000  -1.5682   0.0000   0.0000   0.0000   0.3558
   5.800   1.3100   0.01015   0.00455  -0.1484  0.3308  1.0000  -1.5749   0.0000   0.0000   0.0000   0.3543
   5.900   1.3133   0.01039   0.00471  -0.1470  0.3175  1.0000  -1.5811   0.0000   0.0000   0.0000   0.3528
   6.000   1.3155   0.01067   0.00490  -0.1454  0.3019  1.0000  -1.5865   0.0000   0.0000   0.0000   0.3513
   6.100   1.3169   0.01099   0.00512  -0.1437  0.2839  1.0000  -1.5917   0.0000   0.0000   0.0000   0.3497
   6.200   1.3167   0.01137   0.00538  -0.1417  0.2638  1.0000  -1.6007   0.0000   0.0000   0.0000   0.3481
   6.300   1.3069   0.01206   0.00586  -0.1379  0.2262  1.0000  -1.6072   0.0000   0.0000   0.0000   0.3459
   6.400   1.2960   0.01281   0.00639  -0.1341  0.1875  1.0000  -1.5894   0.0000   0.0000   0.0000   0.3437
   6.500   1.2854   0.01360   0.00697  -0.1304  0.1474  1.0000  -1.5658   0.0000   0.0000   0.0000   0.3416
   6.600   1.2750   0.01436   0.00754  -0.1269  0.1109  1.0000  -1.5655   0.0000   0.0000   0.0000   0.3395
   6.700   1.2649   0.01517   0.00817  -0.1235  0.0728  1.0000  -1.5624   0.0000   0.0000   0.0000   0.3374
   6.800   1.2553   0.01597   0.00880  -0.1202  0.0383  1.0000  -1.5583   0.0000   0.0000   0.0000   0.3354
   6.900   1.2475   0.01674   0.00944  -0.1173  0.0089  1.0000  -1.5550   0.0000   0.0000   0.0000   0.3336
   7.000   1.2496   0.01710   0.00978  -0.1159  0.0014  1.0000  -1.5658   0.0000   0.0000   0.0000   0.3322
   7.100   1.2549   0.01731   0.00999  -0.1151  0.0013  1.0000  -1.6026   0.0000   0.0000   0.0000   0.3310
   7.200   1.2601   0.01751   0.01021  -0.1143  0.0012  1.0000  -1.6393   0.0000   0.0000   0.0000   0.3298
   7.300   1.2653   0.01773   0.01043  -0.1135  0.0011  1.0000  -1.6763   0.0000   0.0000   0.0000   0.3286
   7.400   1.2706   0.01795   0.01065  -0.1127  0.0011  1.0000  -1.7143   0.0000   0.0000   0.0000   0.3275
   7.500   1.2763   0.01816   0.01086  -0.1119  0.0009  1.0000  -1.7536   0.0000   0.0000   0.0000   0.3263
   7.600   1.2818   0.01838   0.01109  -0.1112  0.0008  1.0000  -1.7906   0.0000   0.0000   0.0000   0.3252
   7.700   1.2871   0.01861   0.01133  -0.1104  0.0008  1.0000  -1.8385   0.0000   0.0000   0.0000   0.3241
   7.800   1.2920   0.01885   0.01158  -0.1096  0.0008  1.0000  -1.9091   0.0000   0.0000   0.0000   0.3230
   7.900   1.2968   0.01910   0.01184  -0.1088  0.0007  1.0000  -1.9859   0.0000   0.0000   0.0000   0.3219
   8.000   1.3017   0.01936   0.01211  -0.1080  0.0007  1.0000  -2.0642   0.0000   0.0000   0.0000   0.3208
   8.100   1.3068   0.01961   0.01238  -0.1072  0.0007  1.0000  -2.1440   0.0000   0.0000   0.0000   0.3197
   8.200   1.3118   0.01987   0.01265  -0.1064  0.0007  1.0000  -2.2252   0.0000   0.0000   0.0000   0.3187
   8.300   1.3167   0.02014   0.01293  -0.1057  0.0007  1.0000  -2.3117   0.0000   0.0000   0.0000   0.3176
   8.400   1.3212   0.02043   0.01323  -0.1048  0.0007  1.0000  -2.3977   0.0000   0.0000   0.0000   0.3166
   8.500   1.3256   0.02073   0.01354  -0.1040  0.0006  1.0000  -2.4840   0.0000   0.0000   0.0000   0.3155
   8.600   1.3301   0.02102   0.01386  -0.1032  0.0006  1.0000  -2.5763   0.0000   0.0000   0.0000   0.3145
   8.700   1.3347   0.02132   0.01417  -0.1025  0.0006  1.0000  -2.6662   0.0000   0.0000   0.0000   0.3135
   8.800   1.3394   0.02162   0.01449  -0.1017  0.0006  1.0000  -2.7562   0.0000   0.0000   0.0000   0.3125
   8.900   1.3437   0.02194   0.01483  -0.1009  0.0006  1.0000  -2.8443   0.0000   0.0000   0.0000   0.3115
   9.000   1.3476   0.02229   0.01519  -0.1001  0.0006  1.0000  -2.9310   0.0000   0.0000   0.0000   0.3105
   9.100   1.3516   0.02263   0.01555  -0.0993  0.0006  1.0000  -3.0185   0.0000   0.0000   0.0000   0.3095
   9.200   1.3558   0.02298   0.01592  -0.0985  0.0006  1.0000  -3.1074   0.0000   0.0000   0.0000   0.3086
   9.300   1.3600   0.02333   0.01628  -0.0978  0.0006  1.0000  -3.1972   0.0000   0.0000   0.0000   0.3076
   9.400   1.3639   0.02370   0.01667  -0.0970  0.0006  1.0000  -3.2859   0.0000   0.0000   0.0000   0.3067
   9.500   1.3674   0.02410   0.01709  -0.0962  0.0006  1.0000  -3.3728   0.0000   0.0000   0.0000   0.3057
   9.600   1.3709   0.02450   0.01751  -0.0954  0.0006  1.0000  -3.4605   0.0000   0.0000   0.0000   0.3048
   9.700   1.3746   0.02491   0.01794  -0.0947  0.0006  1.0000  -3.5495   0.0000   0.0000   0.0000   0.3039
   9.800   1.3783   0.02531   0.01837  -0.0939  0.0006  1.0000  -3.6395   0.0000   0.0000   0.0000   0.3030
   9.900   1.3816   0.02575   0.01883  -0.0932  0.0006  1.0000  -3.7272   0.0000   0.0000   0.0000   0.3021
  10.000   1.3846   0.02621   0.01931  -0.0924  0.0006  1.0000  -3.8138   0.0000   0.0000   0.0000   0.3012
  10.100   1.3878   0.02667   0.01979  -0.0916  0.0006  1.0000  -3.9003   0.0000   0.0000   0.0000   0.3004
  10.200   1.3911   0.02713   0.02028  -0.0909  0.0006  1.0000  -3.9897   0.0000   0.0000   0.0000   0.2995
  10.300   1.3942   0.02760   0.02078  -0.0902  0.0006  1.0000  -4.0786   0.0000   0.0000   0.0000   0.2986
  10.400   1.3968   0.02812   0.02132  -0.0894  0.0006  1.0000  -4.1651   0.0000   0.0000   0.0000   0.2978
  10.500   1.3995   0.02865   0.02186  -0.0887  0.0006  1.0000  -4.2523   0.0000   0.0000   0.0000   0.2970
  10.600   1.4023   0.02917   0.02241  -0.0879  0.0006  1.0000  -4.3411   0.0000   0.0000   0.0000   0.2962
  10.700   1.4050   0.02970   0.02297  -0.0872  0.0006  1.0000  -4.4300   0.0000   0.0000   0.0000   0.2954
  10.800   1.4073   0.03028   0.02357  -0.0865  0.0006  1.0000  -4.5160   0.0000   0.0000   0.0000   0.2946
  10.900   1.4096   0.03086   0.02418  -0.0858  0.0006  1.0000  -4.6027   0.0000   0.0000   0.0000   0.2938
  11.000   1.4121   0.03144   0.02479  -0.0851  0.0006  1.0000  -4.6912   0.0000   0.0000   0.0000   0.2930
  11.100   1.4144   0.03204   0.02541  -0.0845  0.0006  1.0000  -4.7791   0.0000   0.0000   0.0000   0.2922
  11.200   1.4163   0.03269   0.02608  -0.0838  0.0006  1.0000  -4.8640   0.0000   0.0000   0.0000   0.2915
  11.300   1.4182   0.03333   0.02676  -0.0831  0.0006  1.0000  -4.9501   0.0000   0.0000   0.0000   0.2908
  11.400   1.4204   0.03397   0.02742  -0.0825  0.0006  1.0000  -5.0379   0.0000   0.0000   0.0000   0.2900
  11.500   1.4222   0.03465   0.02812  -0.0819  0.0006  1.0000  -5.1240   0.0000   0.0000   0.0000   0.2893
  11.700   1.4255   0.03607   0.02961  -0.0807  0.0006  1.0000  -5.2947   0.0000   0.0000   0.0000   0.2880
  11.800   1.4273   0.03678   0.03034  -0.0801  0.0006  1.0000  -5.3818   0.0000   0.0000   0.0000   0.2873
  11.900   1.4286   0.03754   0.03114  -0.0795  0.0006  1.0000  -5.4653   0.0000   0.0000   0.0000   0.2866
  12.000   1.4299   0.03832   0.03194  -0.0789  0.0006  1.0000  -5.5495   0.0000   0.0000   0.0000   0.2860
  12.100   1.4315   0.03908   0.03273  -0.0784  0.0006  1.0000  -5.6357   0.0000   0.0000   0.0000   0.2854
  12.200   1.4329   0.03988   0.03356  -0.0779  0.0006  1.0000  -5.7204   0.0000   0.0000   0.0000   0.2847
  12.300   1.4339   0.04071   0.03443  -0.0774  0.0006  1.0000  -5.8026   0.0000   0.0000   0.0000   0.2841
  12.400   1.4351   0.04154   0.03528  -0.0769  0.0006  1.0000  -5.8870   0.0000   0.0000   0.0000   0.2836
  12.500   1.4364   0.04237   0.03614  -0.0764  0.0006  1.0000  -5.9719   0.0000   0.0000   0.0000   0.2830
  12.600   1.4372   0.04326   0.03707  -0.0759  0.0006  1.0000  -6.0532   0.0000   0.0000   0.0000   0.2824
  12.700   1.4381   0.04415   0.03799  -0.0755  0.0006  1.0000  -6.1359   0.0000   0.0000   0.0000   0.2819
  12.800   1.4393   0.04503   0.03889  -0.0751  0.0006  1.0000  -6.2206   0.0000   0.0000   0.0000   0.2813
  12.900   1.4400   0.04597   0.03986  -0.0747  0.0006  1.0000  -6.3020   0.0000   0.0000   0.0000   0.2808
  13.000   1.4407   0.04692   0.04085  -0.0743  0.0006  1.0000  -6.3832   0.0000   0.0000   0.0000   0.2803
  13.100   1.4416   0.04786   0.04181  -0.0739  0.0006  1.0000  -6.4666   0.0000   0.0000   0.0000   0.2798
  13.200   1.4424   0.04883   0.04281  -0.0735  0.0006  1.0000  -6.5486   0.0000   0.0000   0.0000   0.2794
  13.300   1.4428   0.04984   0.04386  -0.0732  0.0006  1.0000  -6.6281   0.0000   0.0000   0.0000   0.2789
  13.400   1.4435   0.05084   0.04490  -0.0729  0.0006  1.0000  -6.7096   0.0000   0.0000   0.0000   0.2785
  13.500   1.4442   0.05185   0.04594  -0.0726  0.0006  1.0000  -6.7913   0.0000   0.0000   0.0000   0.2780
  13.600   1.4444   0.05292   0.04704  -0.0723  0.0006  1.0000  -6.8693   0.0000   0.0000   0.0000   0.2776
  13.700   1.4449   0.05398   0.04814  -0.0721  0.0006  1.0000  -6.9492   0.0000   0.0000   0.0000   0.2772
  13.800   1.4455   0.05504   0.04922  -0.0718  0.0006  1.0000  -7.0306   0.0000   0.0000   0.0000   0.2768
  13.900   1.4457   0.05615   0.05038  -0.0716  0.0006  1.0000  -7.1081   0.0000   0.0000   0.0000   0.2764
  14.000   1.4459   0.05729   0.05154  -0.0714  0.0006  1.0000  -7.1860   0.0000   0.0000   0.0000   0.2761
  14.100   1.4463   0.05840   0.05268  -0.0712  0.0007  1.0000  -7.2658   0.0000   0.0000   0.0000   0.2757
  14.200   1.4466   0.05954   0.05387  -0.0710  0.0007  1.0000  -7.3435   0.0000   0.0000   0.0000   0.2754
  14.300   1.4466   0.06074   0.05510  -0.0709  0.0007  1.0000  -7.4190   0.0000   0.0000   0.0000   0.2751
  14.400   1.4468   0.06191   0.05630  -0.0708  0.0007  1.0000  -7.4964   0.0000   0.0000   0.0000   0.2747
  14.500   1.4470   0.06309   0.05751  -0.0707  0.0007  1.0000  -7.5738   0.0000   0.0000   0.0000   0.2744
  14.600   1.4468   0.06434   0.05880  -0.0706  0.0007  1.0000  -7.6472   0.0000   0.0000   0.0000   0.2742
  14.700   1.4468   0.06559   0.06008  -0.0705  0.0007  1.0000  -7.7217   0.0000   0.0000   0.0000   0.2739
  14.800   1.4470   0.06681   0.06134  -0.0705  0.0007  1.0000  -7.7978   0.0000   0.0000   0.0000   0.2736
  14.900   1.4468   0.06810   0.06266  -0.0704  0.0007  1.0000  -7.8705   0.0000   0.0000   0.0000   0.2734
  15.000   1.4466   0.06941   0.06402  -0.0704  0.0007  1.0000  -7.9419   0.0000   0.0000   0.0000   0.2732


