xflr5 v6.59

 Calculated polar for: SF-14

 1 1 Reynolds number fixed          Mach number fixed         

 xtrf =   1.000 (top)        1.000 (bottom)
 Mach =   0.050     Re =     0.160 e 6     Ncrit =   5.000

  alpha     CL        CD       CDp       Cm    Top Xtr Bot Xtr   Cpmin    Chinge    XCp    
 ------- -------- --------- --------- -------- ------- ------- -------- --------- ---------
  -3.000   0.4264   0.01623   0.00783  -0.1656  0.7373  0.0464  -1.9217   0.0000   0.0000   0.0000   0.6428
  -2.900   0.4369   0.01606   0.00758  -0.1654  0.7342  0.0484  -1.8656   0.0000   0.0000   0.0000   0.6330
  -2.800   0.4477   0.01589   0.00735  -0.1654  0.7312  0.0504  -1.8070   0.0000   0.0000   0.0000   0.6234
  -2.700   0.4587   0.01576   0.00721  -0.1654  0.7285  0.0521  -1.7404   0.0000   0.0000   0.0000   0.6143
  -2.600   0.4700   0.01560   0.00699  -0.1654  0.7260  0.0542  -1.6801   0.0000   0.0000   0.0000   0.6054
  -2.500   0.4816   0.01541   0.00668  -0.1654  0.7237  0.0561  -1.6250   0.0000   0.0000   0.0000   0.5968
  -2.400   0.4918   0.01527   0.00655  -0.1653  0.7207  0.0577  -1.5658   0.0000   0.0000   0.0000   0.5892
  -2.300   0.5018   0.01518   0.00645  -0.1651  0.7175  0.0600  -1.5057   0.0000   0.0000   0.0000   0.5819
  -2.200   0.5122   0.01508   0.00629  -0.1650  0.7144  0.0630  -1.4486   0.0000   0.0000   0.0000   0.5747
  -2.100   0.5229   0.01497   0.00619  -0.1649  0.7115  0.0655  -1.3868   0.0000   0.0000   0.0000   0.5678
  -2.000   0.5338   0.01487   0.00605  -0.1649  0.7088  0.0685  -1.3266   0.0000   0.0000   0.0000   0.5610
  -1.900   0.5451   0.01475   0.00587  -0.1649  0.7063  0.0714  -1.2729   0.0000   0.0000   0.0000   0.5545
  -1.800   0.5565   0.01466   0.00576  -0.1650  0.7041  0.0745  -1.2187   0.0000   0.0000   0.0000   0.5482
  -1.700   0.5665   0.01459   0.00567  -0.1648  0.7010  0.0785  -1.1710   0.0000   0.0000   0.0000   0.5424
  -1.600   0.5766   0.01452   0.00562  -0.1646  0.6978  0.0821  -1.1203   0.0000   0.0000   0.0000   0.5369
  -1.500   0.5870   0.01446   0.00552  -0.1645  0.6948  0.0864  -1.0718   0.0000   0.0000   0.0000   0.5314
  -1.400   0.5977   0.01438   0.00545  -0.1644  0.6920  0.0904  -1.0211   0.0000   0.0000   0.0000   0.5261
  -1.300   0.6086   0.01432   0.00536  -0.1644  0.6894  0.0957  -0.9712   0.0000   0.0000   0.0000   0.5209
  -1.200   0.6197   0.01425   0.00526  -0.1644  0.6870  0.1012  -0.9380   0.0000   0.0000   0.0000   0.5159
  -1.100   0.6309   0.01419   0.00517  -0.1644  0.6847  0.1069  -0.9465   0.0000   0.0000   0.0000   0.5111
  -1.000   0.6408   0.01416   0.00515  -0.1642  0.6816  0.1133  -0.9541   0.0000   0.0000   0.0000   0.5066
  -0.900   0.6509   0.01411   0.00512  -0.1640  0.6786  0.1200  -0.9618   0.0000   0.0000   0.0000   0.5022
  -0.800   0.6612   0.01407   0.00509  -0.1639  0.6757  0.1272  -0.9698   0.0000   0.0000   0.0000   0.4979
  -0.700   0.6718   0.01403   0.00504  -0.1638  0.6730  0.1354  -0.9780   0.0000   0.0000   0.0000   0.4937
  -0.600   0.6826   0.01399   0.00500  -0.1638  0.6705  0.1446  -0.9863   0.0000   0.0000   0.0000   0.4897
  -0.500   0.6936   0.01395   0.00495  -0.1638  0.6682  0.1546  -0.9948   0.0000   0.0000   0.0000   0.4857
  -0.400   0.7045   0.01392   0.00492  -0.1637  0.6659  0.1658  -1.0032   0.0000   0.0000   0.0000   0.4819
  -0.300   0.7143   0.01389   0.00493  -0.1635  0.6629  0.1777  -1.0108   0.0000   0.0000   0.0000   0.4783
  -0.200   0.7243   0.01387   0.00494  -0.1634  0.6599  0.1909  -1.0185   0.0000   0.0000   0.0000   0.4747
  -0.100   0.7346   0.01384   0.00494  -0.1632  0.6571  0.2058  -1.0267   0.0000   0.0000   0.0000   0.4712
   0.000   0.7450   0.01381   0.00492  -0.1631  0.6545  0.2225  -1.0351   0.0000   0.0000   0.0000   0.4679
   0.100   0.7556   0.01378   0.00490  -0.1631  0.6521  0.2417  -1.0437   0.0000   0.0000   0.0000   0.4645
   0.200   0.7666   0.01374   0.00489  -0.1631  0.6499  0.2637  -1.0525   0.0000   0.0000   0.0000   0.4613
   0.300   0.7773   0.01370   0.00489  -0.1631  0.6477  0.2892  -1.0611   0.0000   0.0000   0.0000   0.4582
   0.400   0.7869   0.01365   0.00493  -0.1628  0.6448  0.3189  -1.0689   0.0000   0.0000   0.0000   0.4553
   0.500   0.7965   0.01358   0.00497  -0.1626  0.6420  0.3589  -1.0768   0.0000   0.0000   0.0000   0.4524
   0.600   0.8059   0.01344   0.00501  -0.1624  0.6394  0.4277  -1.0846   0.0000   0.0000   0.0000   0.4496
   0.700   0.8120   0.01284   0.00512  -0.1613  0.6370  0.7049  -1.0909   0.0000   0.0000   0.0000   0.4466
   0.900   0.8381   0.01253   0.00502  -0.1618  0.6325  1.0000  -1.1112   0.0000   0.0000   0.0000   0.4407
   1.000   0.8491   0.01260   0.00500  -0.1618  0.6304  1.0000  -1.1201   0.0000   0.0000   0.0000   0.4381
   1.100   0.8588   0.01266   0.00504  -0.1616  0.6277  1.0000  -1.1282   0.0000   0.0000   0.0000   0.4355
   1.200   0.8688   0.01273   0.00508  -0.1613  0.6250  1.0000  -1.1366   0.0000   0.0000   0.0000   0.4330
   1.300   0.8789   0.01279   0.00510  -0.1612  0.6224  1.0000  -1.1451   0.0000   0.0000   0.0000   0.4305
   1.400   0.8892   0.01286   0.00512  -0.1610  0.6199  1.0000  -1.1538   0.0000   0.0000   0.0000   0.4281
   1.500   0.8997   0.01292   0.00514  -0.1609  0.6176  1.0000  -1.1627   0.0000   0.0000   0.0000   0.4257
   1.600   0.9104   0.01299   0.00515  -0.1608  0.6155  1.0000  -1.1717   0.0000   0.0000   0.0000   0.4234
   1.700   0.9213   0.01306   0.00516  -0.1608  0.6135  1.0000  -1.1809   0.0000   0.0000   0.0000   0.4212
   1.800   0.9311   0.01313   0.00521  -0.1606  0.6110  1.0000  -1.1892   0.0000   0.0000   0.0000   0.4190
   1.900   0.9408   0.01321   0.00527  -0.1604  0.6084  1.0000  -1.1974   0.0000   0.0000   0.0000   0.4168
   2.000   0.9507   0.01328   0.00532  -0.1602  0.6059  1.0000  -1.2058   0.0000   0.0000   0.0000   0.4147
   2.100   0.9608   0.01335   0.00536  -0.1600  0.6035  1.0000  -1.2146   0.0000   0.0000   0.0000   0.4126
   2.200   0.9711   0.01343   0.00540  -0.1598  0.6013  1.0000  -1.2237   0.0000   0.0000   0.0000   0.4106
   2.300   0.9816   0.01350   0.00543  -0.1597  0.5992  1.0000  -1.2330   0.0000   0.0000   0.0000   0.4086
   2.400   0.9923   0.01357   0.00545  -0.1597  0.5973  1.0000  -1.2424   0.0000   0.0000   0.0000   0.4067
   2.500   1.0026   0.01365   0.00550  -0.1596  0.5952  1.0000  -1.2515   0.0000   0.0000   0.0000   0.4047
   2.600   1.0120   0.01374   0.00558  -0.1593  0.5926  1.0000  -1.2599   0.0000   0.0000   0.0000   0.4029
   2.700   1.0216   0.01382   0.00566  -0.1590  0.5901  1.0000  -1.2684   0.0000   0.0000   0.0000   0.4010
   2.800   1.0313   0.01390   0.00572  -0.1588  0.5878  1.0000  -1.2771   0.0000   0.0000   0.0000   0.3992
   2.900   1.0413   0.01398   0.00578  -0.1586  0.5855  1.0000  -1.2860   0.0000   0.0000   0.0000   0.3974
   3.000   1.0516   0.01406   0.00587  -0.1585  0.5835  1.0000  -1.2953   0.0000   0.0000   0.0000   0.3957
   3.100   1.0620   0.01414   0.00592  -0.1584  0.5816  1.0000  -1.3049   0.0000   0.0000   0.0000   0.3940
   3.200   1.0727   0.01422   0.00596  -0.1583  0.5798  1.0000  -1.3147   0.0000   0.0000   0.0000   0.3923
   3.300   1.0824   0.01431   0.00605  -0.1581  0.5776  1.0000  -1.3237   0.0000   0.0000   0.0000   0.3906
   3.400   1.0916   0.01440   0.00615  -0.1578  0.5752  1.0000  -1.3323   0.0000   0.0000   0.0000   0.3890
   3.500   1.1010   0.01449   0.00624  -0.1575  0.5728  1.0000  -1.3410   0.0000   0.0000   0.0000   0.3874
   3.600   1.1105   0.01457   0.00633  -0.1573  0.5705  1.0000  -1.3500   0.0000   0.0000   0.0000   0.3858
   3.700   1.1204   0.01466   0.00640  -0.1571  0.5684  1.0000  -1.3591   0.0000   0.0000   0.0000   0.3842
   3.800   1.1305   0.01475   0.00647  -0.1569  0.5664  1.0000  -1.3688   0.0000   0.0000   0.0000   0.3827
   3.900   1.1408   0.01484   0.00654  -0.1568  0.5646  1.0000  -1.3787   0.0000   0.0000   0.0000   0.3812
   4.000   1.1515   0.01493   0.00660  -0.1568  0.5629  1.0000  -1.3889   0.0000   0.0000   0.0000   0.3798
   4.100   1.1607   0.01503   0.00674  -0.1565  0.5608  1.0000  -1.3979   0.0000   0.0000   0.0000   0.3783
   4.200   1.1696   0.01513   0.00687  -0.1561  0.5585  1.0000  -1.4066   0.0000   0.0000   0.0000   0.3768
   4.300   1.1787   0.01523   0.00698  -0.1558  0.5562  1.0000  -1.4156   0.0000   0.0000   0.0000   0.3754
   4.400   1.1881   0.01532   0.00708  -0.1555  0.5540  1.0000  -1.4248   0.0000   0.0000   0.0000   0.3740
   4.500   1.1976   0.01542   0.00718  -0.1553  0.5520  1.0000  -1.4343   0.0000   0.0000   0.0000   0.3726
   4.600   1.2076   0.01551   0.00727  -0.1551  0.5501  1.0000  -1.4443   0.0000   0.0000   0.0000   0.3713
   4.700   1.2177   0.01561   0.00735  -0.1550  0.5483  1.0000  -1.4545   0.0000   0.0000   0.0000   0.3699
   4.800   1.2283   0.01571   0.00743  -0.1549  0.5467  1.0000  -1.4651   0.0000   0.0000   0.0000   0.3687
   4.900   1.2372   0.01582   0.00756  -0.1546  0.5446  1.0000  -1.4743   0.0000   0.0000   0.0000   0.3673
   5.000   1.2458   0.01592   0.00771  -0.1542  0.5424  1.0000  -1.4831   0.0000   0.0000   0.0000   0.3660
   5.100   1.2545   0.01603   0.00784  -0.1538  0.5402  1.0000  -1.4922   0.0000   0.0000   0.0000   0.3647
   5.200   1.2636   0.01614   0.00799  -0.1535  0.5381  1.0000  -1.5018   0.0000   0.0000   0.0000   0.3634
   5.300   1.2728   0.01624   0.00811  -0.1532  0.5361  1.0000  -1.5117   0.0000   0.0000   0.0000   0.3622
   5.400   1.2824   0.01635   0.00822  -0.1529  0.5342  1.0000  -1.5219   0.0000   0.0000   0.0000   0.3610
   5.500   1.2923   0.01645   0.00832  -0.1528  0.5324  1.0000  -1.5325   0.0000   0.0000   0.0000   0.3598
   5.600   1.3028   0.01656   0.00842  -0.1527  0.5308  1.0000  -1.5433   0.0000   0.0000   0.0000   0.3586
   5.700   1.3118   0.01667   0.00856  -0.1524  0.5289  1.0000  -1.5530   0.0000   0.0000   0.0000   0.3574
   5.800   1.3198   0.01679   0.00873  -0.1519  0.5268  1.0000  -1.5622   0.0000   0.0000   0.0000   0.3562
   5.900   1.3281   0.01691   0.00889  -0.1514  0.5246  1.0000  -1.5717   0.0000   0.0000   0.0000   0.3550
   6.000   1.3366   0.01703   0.00904  -0.1510  0.5225  1.0000  -1.5814   0.0000   0.0000   0.0000   0.3538
   6.100   1.3455   0.01715   0.00918  -0.1507  0.5205  1.0000  -1.5914   0.0000   0.0000   0.0000   0.3527
   6.200   1.3546   0.01726   0.00931  -0.1503  0.5187  1.0000  -1.6017   0.0000   0.0000   0.0000   0.3515
   6.300   1.3643   0.01737   0.00945  -0.1501  0.5169  1.0000  -1.6422   0.0000   0.0000   0.0000   0.3505
   6.400   1.3745   0.01749   0.00957  -0.1500  0.5153  1.0000  -1.6901   0.0000   0.0000   0.0000   0.3494
   6.500   1.3840   0.01761   0.00971  -0.1498  0.5136  1.0000  -1.7367   0.0000   0.0000   0.0000   0.3483
   6.600   1.3911   0.01775   0.00991  -0.1492  0.5114  1.0000  -1.7782   0.0000   0.0000   0.0000   0.3472
   6.700   1.3987   0.01788   0.01010  -0.1486  0.5093  1.0000  -1.8209   0.0000   0.0000   0.0000   0.3460
   6.800   1.4067   0.01801   0.01027  -0.1481  0.5072  1.0000  -1.8691   0.0000   0.0000   0.0000   0.3449
   6.900   1.4149   0.01814   0.01044  -0.1476  0.5052  1.0000  -1.9189   0.0000   0.0000   0.0000   0.3438
   7.000   1.4236   0.01826   0.01059  -0.1472  0.5033  1.0000  -1.9894   0.0000   0.0000   0.0000   0.3428
   7.100   1.4328   0.01838   0.01074  -0.1470  0.5016  1.0000  -2.0943   0.0000   0.0000   0.0000   0.3418
   7.200   1.4428   0.01850   0.01087  -0.1468  0.5000  1.0000  -2.2045   0.0000   0.0000   0.0000   0.3408
   7.300   1.4528   0.01863   0.01101  -0.1467  0.4984  1.0000  -2.3163   0.0000   0.0000   0.0000   0.3399
   7.400   1.4588   0.01879   0.01124  -0.1459  0.4962  1.0000  -2.4081   0.0000   0.0000   0.0000   0.3387
   7.500   1.4654   0.01894   0.01148  -0.1451  0.4940  1.0000  -2.5002   0.0000   0.0000   0.0000   0.3376
   7.600   1.4711   0.01906   0.01165  -0.1441  0.4908  1.0000  -2.5919   0.0000   0.0000   0.0000   0.3364
   7.700   1.4767   0.01914   0.01173  -0.1431  0.4866  1.0000  -2.6857   0.0000   0.0000   0.0000   0.3352
   7.800   1.4811   0.01921   0.01179  -0.1419  0.4813  1.0000  -2.7743   0.0000   0.0000   0.0000   0.3339
   7.900   1.4806   0.01931   0.01194  -0.1397  0.4755  1.0000  -2.8355   0.0000   0.0000   0.0000   0.3323
   8.000   1.4822   0.01936   0.01193  -0.1379  0.4690  1.0000  -2.9108   0.0000   0.0000   0.0000   0.3308
   8.100   1.4798   0.01949   0.01211  -0.1354  0.4627  1.0000  -2.9616   0.0000   0.0000   0.0000   0.3291
   8.200   1.4790   0.01961   0.01219  -0.1332  0.4554  1.0000  -3.0235   0.0000   0.0000   0.0000   0.3275
   8.300   1.4774   0.01976   0.01235  -0.1309  0.4479  1.0000  -3.0802   0.0000   0.0000   0.0000   0.3259
   8.400   1.4759   0.01993   0.01249  -0.1287  0.4400  1.0000  -3.1383   0.0000   0.0000   0.0000   0.3243
   8.500   1.4738   0.02015   0.01271  -0.1264  0.4318  1.0000  -3.1918   0.0000   0.0000   0.0000   0.3228
   8.600   1.4723   0.02038   0.01289  -0.1243  0.4233  1.0000  -3.2498   0.0000   0.0000   0.0000   0.3213
   8.700   1.4703   0.02064   0.01316  -0.1222  0.4141  1.0000  -3.3045   0.0000   0.0000   0.0000   0.3198
   8.800   1.4689   0.02093   0.01343  -0.1202  0.4049  1.0000  -3.3627   0.0000   0.0000   0.0000   0.3183
   8.900   1.4675   0.02125   0.01370  -0.1183  0.3959  1.0000  -3.4211   0.0000   0.0000   0.0000   0.3169
   9.000   1.4670   0.02157   0.01403  -0.1165  0.3864  1.0000  -3.4848   0.0000   0.0000   0.0000   0.3156
   9.100   1.4670   0.02191   0.01436  -0.1149  0.3782  1.0000  -3.5509   0.0000   0.0000   0.0000   0.3143
   9.200   1.4670   0.02227   0.01470  -0.1133  0.3698  1.0000  -3.6175   0.0000   0.0000   0.0000   0.3131
   9.300   1.4673   0.02264   0.01509  -0.1118  0.3609  1.0000  -3.6877   0.0000   0.0000   0.0000   0.3118
   9.400   1.4666   0.02306   0.01549  -0.1102  0.3518  1.0000  -3.7508   0.0000   0.0000   0.0000   0.3106
   9.500   1.4653   0.02353   0.01593  -0.1085  0.3418  1.0000  -3.8098   0.0000   0.0000   0.0000   0.3094
   9.600   1.4639   0.02403   0.01639  -0.1069  0.3304  1.0000  -3.8678   0.0000   0.0000   0.0000   0.3081
   9.700   1.4615   0.02459   0.01691  -0.1052  0.3183  1.0000  -3.9199   0.0000   0.0000   0.0000   0.3069
   9.800   1.4583   0.02521   0.01748  -0.1034  0.3051  1.0000  -3.9668   0.0000   0.0000   0.0000   0.3057
   9.900   1.4540   0.02593   0.01813  -0.1016  0.2913  1.0000  -4.0063   0.0000   0.0000   0.0000   0.3045
  10.000   1.4490   0.02672   0.01885  -0.0997  0.2763  1.0000  -4.0414   0.0000   0.0000   0.0000   0.3033
  10.100   1.4430   0.02760   0.01965  -0.0979  0.2605  1.0000  -4.0704   0.0000   0.0000   0.0000   0.3021
  10.200   1.4364   0.02857   0.02052  -0.0960  0.2444  1.0000  -4.0949   0.0000   0.0000   0.0000   0.3009
  10.300   1.4296   0.02959   0.02146  -0.0943  0.2285  1.0000  -4.1176   0.0000   0.0000   0.0000   0.2998
  10.400   1.4226   0.03069   0.02247  -0.0926  0.2121  1.0000  -4.1385   0.0000   0.0000   0.0000   0.2988
  10.500   1.4137   0.03196   0.02364  -0.0908  0.1938  1.0000  -4.1463   0.0000   0.0000   0.0000   0.2977
  10.600   1.4036   0.03339   0.02493  -0.0890  0.1739  1.0000  -4.1461   0.0000   0.0000   0.0000   0.2968
  10.700   1.3939   0.03484   0.02627  -0.0874  0.1551  1.0000  -4.1482   0.0000   0.0000   0.0000   0.2959
  10.800   1.3855   0.03627   0.02760  -0.0860  0.1383  1.0000  -4.1568   0.0000   0.0000   0.0000   0.2950
  10.900   1.3788   0.03761   0.02886  -0.0848  0.1242  1.0000  -4.1762   0.0000   0.0000   0.0000   0.2943
  11.000   1.3736   0.03886   0.03006  -0.0837  0.1128  1.0000  -4.2050   0.0000   0.0000   0.0000   0.2936
  11.100   1.3698   0.04004   0.03121  -0.0828  0.1034  1.0000  -4.2423   0.0000   0.0000   0.0000   0.2929
  11.200   1.3666   0.04119   0.03234  -0.0820  0.0954  1.0000  -4.2830   0.0000   0.0000   0.0000   0.2922
  11.300   1.3639   0.04232   0.03345  -0.0812  0.0881  1.0000  -4.3271   0.0000   0.0000   0.0000   0.2916
  11.400   1.3611   0.04349   0.03460  -0.0805  0.0811  1.0000  -4.3698   0.0000   0.0000   0.0000   0.2910
  11.500   1.3582   0.04468   0.03578  -0.0798  0.0743  1.0000  -4.4119   0.0000   0.0000   0.0000   0.2904
  11.600   1.3553   0.04591   0.03698  -0.0792  0.0678  1.0000  -4.4536   0.0000   0.0000   0.0000   0.2899
  11.700   1.3527   0.04714   0.03820  -0.0786  0.0615  1.0000  -4.4965   0.0000   0.0000   0.0000   0.2894
  11.800   1.3503   0.04837   0.03941  -0.0781  0.0555  1.0000  -4.5408   0.0000   0.0000   0.0000   0.2889
  11.900   1.3479   0.04961   0.04065  -0.0776  0.0501  1.0000  -4.5853   0.0000   0.0000   0.0000   0.2884
  12.000   1.3459   0.05085   0.04187  -0.0771  0.0451  1.0000  -4.6314   0.0000   0.0000   0.0000   0.2880
  12.100   1.3440   0.05209   0.04311  -0.0767  0.0407  1.0000  -4.6784   0.0000   0.0000   0.0000   0.2876
  12.200   1.3431   0.05325   0.04427  -0.0763  0.0369  1.0000  -4.7316   0.0000   0.0000   0.0000   0.2871
  12.300   1.3426   0.05438   0.04542  -0.0760  0.0342  1.0000  -4.7863   0.0000   0.0000   0.0000   0.2867
  12.400   1.3428   0.05546   0.04653  -0.0757  0.0316  1.0000  -4.8447   0.0000   0.0000   0.0000   0.2863
  12.500   1.3417   0.05669   0.04778  -0.0754  0.0285  1.0000  -4.8934   0.0000   0.0000   0.0000   0.2859
  12.600   1.3406   0.05794   0.04904  -0.0751  0.0247  1.0000  -4.9421   0.0000   0.0000   0.0000   0.2856
  12.700   1.3390   0.05926   0.05036  -0.0749  0.0208  1.0000  -4.9874   0.0000   0.0000   0.0000   0.2853
  12.800   1.3372   0.06062   0.05171  -0.0747  0.0168  1.0000  -5.0314   0.0000   0.0000   0.0000   0.2850
  12.900   1.3355   0.06200   0.05309  -0.0745  0.0133  1.0000  -5.0750   0.0000   0.0000   0.0000   0.2847
  13.000   1.3339   0.06338   0.05446  -0.0743  0.0104  1.0000  -5.1192   0.0000   0.0000   0.0000   0.2844
  13.100   1.3323   0.06478   0.05587  -0.0742  0.0080  1.0000  -5.1637   0.0000   0.0000   0.0000   0.2842
  13.200   1.3313   0.06612   0.05723  -0.0740  0.0067  1.0000  -5.2110   0.0000   0.0000   0.0000   0.2839
  13.300   1.3308   0.06742   0.05856  -0.0739  0.0058  1.0000  -5.2606   0.0000   0.0000   0.0000   0.2837
  13.400   1.3304   0.06873   0.05990  -0.0739  0.0053  1.0000  -5.3105   0.0000   0.0000   0.0000   0.2834
  13.500   1.3302   0.07001   0.06122  -0.0738  0.0049  1.0000  -5.3620   0.0000   0.0000   0.0000   0.2832
  13.600   1.3304   0.07127   0.06253  -0.0737  0.0046  1.0000  -5.4151   0.0000   0.0000   0.0000   0.2829
  13.700   1.3306   0.07252   0.06383  -0.0737  0.0044  1.0000  -5.4691   0.0000   0.0000   0.0000   0.2827
  13.800   1.3309   0.07378   0.06514  -0.0737  0.0042  1.0000  -5.5234   0.0000   0.0000   0.0000   0.2825
  13.900   1.3311   0.07506   0.06647  -0.0737  0.0040  1.0000  -5.5781   0.0000   0.0000   0.0000   0.2822
  14.000   1.3314   0.07634   0.06780  -0.0737  0.0039  1.0000  -5.6338   0.0000   0.0000   0.0000   0.2820
  14.100   1.3318   0.07762   0.06913  -0.0737  0.0038  1.0000  -5.6901   0.0000   0.0000   0.0000   0.2818
  14.200   1.3320   0.07893   0.07049  -0.0737  0.0036  1.0000  -5.7460   0.0000   0.0000   0.0000   0.2816
  14.300   1.3323   0.08023   0.07185  -0.0738  0.0035  1.0000  -5.8026   0.0000   0.0000   0.0000   0.2814
  14.400   1.3327   0.08154   0.07321  -0.0739  0.0035  1.0000  -5.8594   0.0000   0.0000   0.0000   0.2813
  14.500   1.3329   0.08286   0.07458  -0.0739  0.0034  1.0000  -5.9160   0.0000   0.0000   0.0000   0.2811
  14.600   1.3332   0.08420   0.07597  -0.0740  0.0033  1.0000  -5.9720   0.0000   0.0000   0.0000   0.2810
  14.700   1.3334   0.08555   0.07739  -0.0742  0.0032  1.0000  -6.0280   0.0000   0.0000   0.0000   0.2808
  14.800   1.3336   0.08690   0.07879  -0.0743  0.0032  1.0000  -6.0831   0.0000   0.0000   0.0000   0.2807
  14.900   1.3338   0.08828   0.08022  -0.0744  0.0031  1.0000  -6.1369   0.0000   0.0000   0.0000   0.2806
  15.000   1.3338   0.08967   0.08167  -0.0746  0.0031  1.0000  -6.1893   0.0000   0.0000   0.0000   0.2805


