xflr5 v6.59

 Calculated polar for: SF-12

 1 1 Reynolds number fixed          Mach number fixed         

 xtrf =   1.000 (top)        1.000 (bottom)
 Mach =   0.050     Re =     0.300 e 6     Ncrit =   5.000

  alpha     CL        CD       CDp       Cm    Top Xtr Bot Xtr   Cpmin    Chinge    XCp    
 ------- -------- --------- --------- -------- ------- ------- -------- --------- ---------
  -3.000   0.3141   0.01217   0.00427  -0.1284  0.6739  0.0746  -1.5873   0.0000   0.0000   0.0000   0.6645
  -2.900   0.3251   0.01211   0.00422  -0.1284  0.6722  0.0768  -1.5392   0.0000   0.0000   0.0000   0.6501
  -2.800   0.3362   0.01206   0.00416  -0.1283  0.6704  0.0792  -1.4920   0.0000   0.0000   0.0000   0.6366
  -2.700   0.3472   0.01200   0.00411  -0.1283  0.6686  0.0813  -1.4452   0.0000   0.0000   0.0000   0.6239
  -2.600   0.3583   0.01194   0.00406  -0.1282  0.6667  0.0835  -1.3983   0.0000   0.0000   0.0000   0.6121
  -2.500   0.3693   0.01190   0.00400  -0.1282  0.6649  0.0861  -1.3519   0.0000   0.0000   0.0000   0.6009
  -2.400   0.3804   0.01186   0.00394  -0.1281  0.6630  0.0888  -1.3062   0.0000   0.0000   0.0000   0.5903
  -2.300   0.3914   0.01181   0.00390  -0.1281  0.6613  0.0914  -1.2603   0.0000   0.0000   0.0000   0.5804
  -2.200   0.4024   0.01177   0.00385  -0.1280  0.6596  0.0944  -1.2150   0.0000   0.0000   0.0000   0.5709
  -2.100   0.4135   0.01174   0.00380  -0.1279  0.6579  0.0973  -1.1749   0.0000   0.0000   0.0000   0.5620
  -2.000   0.4245   0.01171   0.00376  -0.1279  0.6564  0.1001  -1.1345   0.0000   0.0000   0.0000   0.5535
  -1.900   0.4356   0.01168   0.00371  -0.1278  0.6548  0.1033  -1.0945   0.0000   0.0000   0.0000   0.5455
  -1.800   0.4466   0.01165   0.00368  -0.1278  0.6530  0.1065  -1.0553   0.0000   0.0000   0.0000   0.5379
  -1.700   0.4576   0.01161   0.00367  -0.1277  0.6511  0.1097  -1.0160   0.0000   0.0000   0.0000   0.5307
  -1.600   0.4686   0.01158   0.00364  -0.1277  0.6491  0.1133  -0.9773   0.0000   0.0000   0.0000   0.5238
  -1.500   0.4796   0.01155   0.00361  -0.1276  0.6471  0.1166  -0.9388   0.0000   0.0000   0.0000   0.5172
  -1.400   0.4906   0.01152   0.00359  -0.1276  0.6451  0.1203  -0.9006   0.0000   0.0000   0.0000   0.5109
  -1.300   0.5016   0.01150   0.00356  -0.1275  0.6431  0.1241  -0.8629   0.0000   0.0000   0.0000   0.5048
  -1.200   0.5125   0.01147   0.00354  -0.1275  0.6412  0.1277  -0.8682   0.0000   0.0000   0.0000   0.4991
  -1.100   0.5235   0.01145   0.00351  -0.1274  0.6394  0.1318  -0.8772   0.0000   0.0000   0.0000   0.4935
  -1.000   0.5345   0.01144   0.00348  -0.1273  0.6376  0.1356  -0.8861   0.0000   0.0000   0.0000   0.4882
  -0.900   0.5455   0.01142   0.00345  -0.1273  0.6360  0.1398  -0.8953   0.0000   0.0000   0.0000   0.4831
  -0.800   0.5565   0.01141   0.00344  -0.1272  0.6340  0.1439  -0.9045   0.0000   0.0000   0.0000   0.4782
  -0.700   0.5674   0.01138   0.00345  -0.1272  0.6319  0.1481  -0.9137   0.0000   0.0000   0.0000   0.4736
  -0.600   0.5783   0.01137   0.00343  -0.1271  0.6298  0.1525  -0.9231   0.0000   0.0000   0.0000   0.4691
  -0.500   0.5892   0.01135   0.00343  -0.1270  0.6276  0.1567  -0.9327   0.0000   0.0000   0.0000   0.4647
  -0.400   0.6000   0.01133   0.00342  -0.1269  0.6254  0.1615  -0.9423   0.0000   0.0000   0.0000   0.4605
  -0.300   0.6109   0.01132   0.00341  -0.1269  0.6232  0.1659  -0.9519   0.0000   0.0000   0.0000   0.4565
  -0.200   0.6218   0.01131   0.00340  -0.1268  0.6212  0.1707  -0.9617   0.0000   0.0000   0.0000   0.4525
  -0.100   0.6327   0.01131   0.00338  -0.1267  0.6192  0.1755  -0.9718   0.0000   0.0000   0.0000   0.4487
   0.000   0.6436   0.01130   0.00337  -0.1266  0.6173  0.1805  -0.9819   0.0000   0.0000   0.0000   0.4451
   0.100   0.6544   0.01130   0.00337  -0.1266  0.6153  0.1857  -0.9919   0.0000   0.0000   0.0000   0.4416
   0.200   0.6652   0.01128   0.00339  -0.1265  0.6129  0.1907  -1.0019   0.0000   0.0000   0.0000   0.4382
   0.300   0.6760   0.01128   0.00339  -0.1264  0.6106  0.1963  -1.0123   0.0000   0.0000   0.0000   0.4349
   0.400   0.6867   0.01126   0.00340  -0.1263  0.6081  0.2017  -1.0227   0.0000   0.0000   0.0000   0.4317
   0.500   0.6975   0.01126   0.00339  -0.1262  0.6057  0.2077  -1.0332   0.0000   0.0000   0.0000   0.4285
   0.600   0.7082   0.01125   0.00340  -0.1261  0.6034  0.2134  -1.0436   0.0000   0.0000   0.0000   0.4255
   0.800   0.7297   0.01125   0.00339  -0.1259  0.5991  0.2262  -1.0653   0.0000   0.0000   0.0000   0.4197
   0.900   0.7404   0.01125   0.00340  -0.1259  0.5968  0.2330  -1.0762   0.0000   0.0000   0.0000   0.4170
   1.000   0.7510   0.01124   0.00343  -0.1258  0.5943  0.2401  -1.0870   0.0000   0.0000   0.0000   0.4143
   1.100   0.7616   0.01124   0.00345  -0.1257  0.5917  0.2475  -1.0978   0.0000   0.0000   0.0000   0.4117
   1.200   0.7722   0.01124   0.00346  -0.1256  0.5891  0.2557  -1.1091   0.0000   0.0000   0.0000   0.4091
   1.300   0.7828   0.01123   0.00348  -0.1254  0.5865  0.2641  -1.1204   0.0000   0.0000   0.0000   0.4067
   1.400   0.7933   0.01123   0.00349  -0.1253  0.5839  0.2731  -1.1317   0.0000   0.0000   0.0000   0.4043
   1.500   0.8038   0.01123   0.00349  -0.1252  0.5816  0.2832  -1.1430   0.0000   0.0000   0.0000   0.4019
   1.600   0.8143   0.01123   0.00350  -0.1251  0.5792  0.2945  -1.1545   0.0000   0.0000   0.0000   0.3996
   1.700   0.8248   0.01122   0.00354  -0.1250  0.5766  0.3069  -1.1662   0.0000   0.0000   0.0000   0.3974
   1.900   0.8455   0.01117   0.00360  -0.1247  0.5709  0.3408  -1.1895   0.0000   0.0000   0.0000   0.3931
   2.000   0.8557   0.01112   0.00362  -0.1246  0.5681  0.3687  -1.2010   0.0000   0.0000   0.0000   0.3911
   2.100   0.8652   0.01097   0.00366  -0.1244  0.5654  0.4423  -1.2125   0.0000   0.0000   0.0000   0.3891
   2.300   0.8925   0.01000   0.00379  -0.1252  0.5601  1.0000  -1.2421   0.0000   0.0000   0.0000   0.3854
   2.400   0.9028   0.01004   0.00382  -0.1251  0.5572  1.0000  -1.2543   0.0000   0.0000   0.0000   0.3835
   2.500   0.9130   0.01009   0.00385  -0.1249  0.5541  1.0000  -1.2665   0.0000   0.0000   0.0000   0.3816
   2.600   0.9231   0.01014   0.00387  -0.1247  0.5510  1.0000  -1.2791   0.0000   0.0000   0.0000   0.3797
   2.700   0.9331   0.01019   0.00389  -0.1244  0.5480  1.0000  -1.2916   0.0000   0.0000   0.0000   0.3779
   2.800   0.9431   0.01025   0.00392  -0.1242  0.5452  1.0000  -1.3042   0.0000   0.0000   0.0000   0.3761
   2.900   0.9532   0.01031   0.00395  -0.1240  0.5423  1.0000  -1.3169   0.0000   0.0000   0.0000   0.3744
   3.000   0.9633   0.01036   0.00399  -0.1238  0.5392  1.0000  -1.3296   0.0000   0.0000   0.0000   0.3727
   3.100   0.9733   0.01041   0.00403  -0.1236  0.5359  1.0000  -1.3427   0.0000   0.0000   0.0000   0.3710
   3.200   0.9832   0.01047   0.00409  -0.1234  0.5326  1.0000  -1.3558   0.0000   0.0000   0.0000   0.3693
   3.300   0.9930   0.01054   0.00412  -0.1231  0.5294  1.0000  -1.3688   0.0000   0.0000   0.0000   0.3677
   3.400   1.0026   0.01061   0.00416  -0.1228  0.5264  1.0000  -1.3818   0.0000   0.0000   0.0000   0.3661
   3.500   1.0126   0.01067   0.00421  -0.1226  0.5232  1.0000  -1.3951   0.0000   0.0000   0.0000   0.3645
   3.600   1.0224   0.01073   0.00426  -0.1223  0.5198  1.0000  -1.4087   0.0000   0.0000   0.0000   0.3630
   3.700   1.0321   0.01079   0.00431  -0.1221  0.5163  1.0000  -1.4223   0.0000   0.0000   0.0000   0.3615
   3.800   1.0416   0.01087   0.00436  -0.1218  0.5129  1.0000  -1.4357   0.0000   0.0000   0.0000   0.3600
   3.900   1.0510   0.01095   0.00441  -0.1214  0.5097  1.0000  -1.4491   0.0000   0.0000   0.0000   0.3585
   4.000   1.0606   0.01102   0.00446  -0.1212  0.5064  1.0000  -1.4628   0.0000   0.0000   0.0000   0.3570
   4.100   1.0702   0.01108   0.00452  -0.1209  0.5028  1.0000  -1.4769   0.0000   0.0000   0.0000   0.3556
   4.200   1.0796   0.01116   0.00458  -0.1206  0.4992  1.0000  -1.4909   0.0000   0.0000   0.0000   0.3542
   4.300   1.0888   0.01124   0.00466  -0.1202  0.4956  1.0000  -1.5048   0.0000   0.0000   0.0000   0.3528
   4.400   1.0978   0.01133   0.00472  -0.1198  0.4922  1.0000  -1.5185   0.0000   0.0000   0.0000   0.3514
   4.500   1.1071   0.01141   0.00479  -0.1195  0.4887  1.0000  -1.5327   0.0000   0.0000   0.0000   0.3501
   4.600   1.1164   0.01148   0.00486  -0.1192  0.4850  1.0000  -1.5472   0.0000   0.0000   0.0000   0.3487
   4.700   1.1254   0.01157   0.00493  -0.1188  0.4812  1.0000  -1.5616   0.0000   0.0000   0.0000   0.3474
   4.800   1.1341   0.01166   0.00500  -0.1184  0.4776  1.0000  -1.5757   0.0000   0.0000   0.0000   0.3461
   4.900   1.1426   0.01176   0.00507  -0.1179  0.4741  1.0000  -1.5897   0.0000   0.0000   0.0000   0.3447
   5.000   1.1518   0.01184   0.00515  -0.1176  0.4704  1.0000  -1.6044   0.0000   0.0000   0.0000   0.3435
   5.100   1.1606   0.01193   0.00523  -0.1172  0.4665  1.0000  -1.6193   0.0000   0.0000   0.0000   0.3422
   5.200   1.1691   0.01202   0.00532  -0.1167  0.4627  1.0000  -1.6339   0.0000   0.0000   0.0000   0.3409
   5.300   1.1771   0.01213   0.00540  -0.1162  0.4591  1.0000  -1.6482   0.0000   0.0000   0.0000   0.3397
   5.400   1.1855   0.01223   0.00549  -0.1157  0.4555  1.0000  -1.6628   0.0000   0.0000   0.0000   0.3384
   5.500   1.1941   0.01232   0.00559  -0.1152  0.4516  1.0000  -1.6776   0.0000   0.0000   0.0000   0.3372
   5.600   1.2022   0.01242   0.00569  -0.1147  0.4476  1.0000  -1.6926   0.0000   0.0000   0.0000   0.3360
   5.700   1.2099   0.01254   0.00578  -0.1141  0.4438  1.0000  -1.7073   0.0000   0.0000   0.0000   0.3347
   5.800   1.2174   0.01266   0.00588  -0.1135  0.4403  1.0000  -1.7217   0.0000   0.0000   0.0000   0.3335
   5.900   1.2256   0.01275   0.00598  -0.1130  0.4365  1.0000  -1.7369   0.0000   0.0000   0.0000   0.3323
   6.000   1.2333   0.01286   0.00608  -0.1124  0.4324  1.0000  -1.7516   0.0000   0.0000   0.0000   0.3311
   6.100   1.2404   0.01298   0.00618  -0.1117  0.4285  1.0000  -1.7664   0.0000   0.0000   0.0000   0.3299
   6.200   1.2470   0.01311   0.00630  -0.1109  0.4250  1.0000  -1.7807   0.0000   0.0000   0.0000   0.3286
   6.300   1.2546   0.01321   0.00640  -0.1103  0.4213  1.0000  -1.7960   0.0000   0.0000   0.0000   0.3274
   6.400   1.2617   0.01333   0.00651  -0.1096  0.4174  1.0000  -1.8109   0.0000   0.0000   0.0000   0.3262
   6.500   1.2682   0.01345   0.00663  -0.1088  0.4135  1.0000  -1.8252   0.0000   0.0000   0.0000   0.3250
   6.600   1.2737   0.01359   0.00675  -0.1078  0.4099  1.0000  -1.8391   0.0000   0.0000   0.0000   0.3237
   6.700   1.2795   0.01371   0.00687  -0.1068  0.4064  1.0000  -1.8533   0.0000   0.0000   0.0000   0.3224
   6.800   1.2846   0.01383   0.00700  -0.1058  0.4022  1.0000  -1.8670   0.0000   0.0000   0.0000   0.3211
   6.900   1.2873   0.01399   0.00713  -0.1042  0.3965  1.0000  -1.8782   0.0000   0.0000   0.0000   0.3196
   7.000   1.2892   0.01417   0.00728  -0.1026  0.3901  1.0000  -1.8886   0.0000   0.0000   0.0000   0.3181
   7.100   1.2908   0.01437   0.00745  -0.1010  0.3819  1.0000  -1.8988   0.0000   0.0000   0.0000   0.3165
   7.200   1.2917   0.01460   0.00763  -0.0992  0.3736  1.0000  -1.9086   0.0000   0.0000   0.0000   0.3150
   7.300   1.2915   0.01487   0.00784  -0.0973  0.3646  1.0000  -1.9174   0.0000   0.0000   0.0000   0.3134
   7.400   1.2917   0.01513   0.00806  -0.0955  0.3552  1.0000  -1.9265   0.0000   0.0000   0.0000   0.3118
   7.500   1.2907   0.01545   0.00831  -0.0936  0.3463  1.0000  -1.9342   0.0000   0.0000   0.0000   0.3102
   7.600   1.2905   0.01576   0.00857  -0.0918  0.3363  1.0000  -1.9429   0.0000   0.0000   0.0000   0.3087
   7.700   1.2902   0.01609   0.00885  -0.0901  0.3270  1.0000  -1.9512   0.0000   0.0000   0.0000   0.3072
   7.800   1.2891   0.01646   0.00916  -0.0882  0.3183  1.0000  -1.9587   0.0000   0.0000   0.0000   0.3057
   7.900   1.2900   0.01678   0.00945  -0.0868  0.3093  1.0000  -1.9688   0.0000   0.0000   0.0000   0.3043
   8.000   1.2907   0.01712   0.00975  -0.0853  0.3023  1.0000  -1.9787   0.0000   0.0000   0.0000   0.3030
   8.100   1.2937   0.01740   0.01001  -0.0842  0.2966  1.0000  -1.9911   0.0000   0.0000   0.0000   0.3018
   8.200   1.2962   0.01770   0.01030  -0.0830  0.2922  1.0000  -2.0029   0.0000   0.0000   0.0000   0.3006
   8.300   1.2995   0.01799   0.01057  -0.0820  0.2879  1.0000  -2.0157   0.0000   0.0000   0.0000   0.2995
   8.400   1.3029   0.01827   0.01085  -0.0810  0.2831  1.0000  -2.0287   0.0000   0.0000   0.0000   0.2984
   8.500   1.3052   0.01861   0.01117  -0.0798  0.2786  1.0000  -2.0409   0.0000   0.0000   0.0000   0.2973
   8.600   1.3081   0.01893   0.01150  -0.0788  0.2737  1.0000  -2.0538   0.0000   0.0000   0.0000   0.2962
   8.700   1.3111   0.01926   0.01182  -0.0778  0.2689  1.0000  -2.0668   0.0000   0.0000   0.0000   0.2951
   8.800   1.3132   0.01963   0.01217  -0.0767  0.2646  1.0000  -2.0787   0.0000   0.0000   0.0000   0.2940
   8.900   1.3167   0.01995   0.01249  -0.0758  0.2602  1.0000  -2.0924   0.0000   0.0000   0.0000   0.2930
   9.000   1.3195   0.02031   0.01283  -0.0749  0.2555  1.0000  -2.1059   0.0000   0.0000   0.0000   0.2920
   9.100   1.3216   0.02071   0.01322  -0.0738  0.2513  1.0000  -2.1183   0.0000   0.0000   0.0000   0.2909
   9.200   1.3250   0.02106   0.01356  -0.0730  0.2468  1.0000  -2.1326   0.0000   0.0000   0.0000   0.2900
   9.300   1.3277   0.02145   0.01395  -0.0721  0.2423  1.0000  -2.1460   0.0000   0.0000   0.0000   0.2890
   9.400   1.3300   0.02186   0.01435  -0.0711  0.2383  1.0000  -2.1596   0.0000   0.0000   0.0000   0.2880
   9.500   1.3335   0.02223   0.01472  -0.0703  0.2340  1.0000  -2.1746   0.0000   0.0000   0.0000   0.2871
   9.600   1.3359   0.02266   0.01514  -0.0694  0.2296  1.0000  -2.1888   0.0000   0.0000   0.0000   0.2862
   9.700   1.3384   0.02309   0.01556  -0.0686  0.2257  1.0000  -2.2060   0.0000   0.0000   0.0000   0.2853
   9.800   1.3416   0.02349   0.01596  -0.0678  0.2214  1.0000  -2.2660   0.0000   0.0000   0.0000   0.2844
   9.900   1.3440   0.02394   0.01640  -0.0669  0.2173  1.0000  -2.3228   0.0000   0.0000   0.0000   0.2835
  10.000   1.3466   0.02439   0.01685  -0.0661  0.2136  1.0000  -2.3804   0.0000   0.0000   0.0000   0.2826
  10.100   1.3496   0.02482   0.01728  -0.0654  0.2095  1.0000  -2.4404   0.0000   0.0000   0.0000   0.2818
  10.200   1.3520   0.02529   0.01776  -0.0646  0.2055  1.0000  -2.4988   0.0000   0.0000   0.0000   0.2809
  10.300   1.3533   0.02584   0.01829  -0.0637  0.1996  1.0000  -2.5514   0.0000   0.0000   0.0000   0.2800
  10.400   1.3526   0.02652   0.01893  -0.0627  0.1923  1.0000  -2.5953   0.0000   0.0000   0.0000   0.2791
  10.500   1.3518   0.02723   0.01960  -0.0617  0.1834  1.0000  -2.6382   0.0000   0.0000   0.0000   0.2782
  10.600   1.3501   0.02801   0.02032  -0.0607  0.1738  1.0000  -2.6774   0.0000   0.0000   0.0000   0.2773
  10.700   1.3479   0.02884   0.02110  -0.0596  0.1638  1.0000  -2.7139   0.0000   0.0000   0.0000   0.2764
  10.800   1.3456   0.02969   0.02189  -0.0586  0.1537  1.0000  -2.7503   0.0000   0.0000   0.0000   0.2756
  10.900   1.3435   0.03055   0.02269  -0.0577  0.1442  1.0000  -2.7872   0.0000   0.0000   0.0000   0.2748
  11.000   1.3428   0.03133   0.02344  -0.0569  0.1366  1.0000  -2.8304   0.0000   0.0000   0.0000   0.2740
  11.100   1.3429   0.03206   0.02414  -0.0561  0.1302  1.0000  -2.8777   0.0000   0.0000   0.0000   0.2732
  11.200   1.3428   0.03283   0.02488  -0.0554  0.1238  1.0000  -2.9236   0.0000   0.0000   0.0000   0.2725
  11.300   1.3427   0.03360   0.02563  -0.0547  0.1174  1.0000  -2.9697   0.0000   0.0000   0.0000   0.2718
  11.400   1.3425   0.03439   0.02639  -0.0540  0.1109  1.0000  -3.0157   0.0000   0.0000   0.0000   0.2711
  11.500   1.3422   0.03521   0.02718  -0.0533  0.1046  1.0000  -3.0608   0.0000   0.0000   0.0000   0.2704
  11.600   1.3417   0.03606   0.02801  -0.0526  0.0984  1.0000  -3.1047   0.0000   0.0000   0.0000   0.2697
  11.700   1.3410   0.03693   0.02886  -0.0520  0.0917  1.0000  -3.1477   0.0000   0.0000   0.0000   0.2690
  11.800   1.3364   0.03814   0.02999  -0.0511  0.0805  1.0000  -3.1716   0.0000   0.0000   0.0000   0.2683
  11.900   1.3275   0.03975   0.03150  -0.0502  0.0648  1.0000  -3.1735   0.0000   0.0000   0.0000   0.2677
  12.000   1.3187   0.04140   0.03304  -0.0493  0.0501  1.0000  -3.1756   0.0000   0.0000   0.0000   0.2671
  12.100   1.3103   0.04306   0.03462  -0.0485  0.0368  1.0000  -3.1788   0.0000   0.0000   0.0000   0.2665
  12.200   1.3025   0.04472   0.03621  -0.0478  0.0245  1.0000  -3.1843   0.0000   0.0000   0.0000   0.2660
  12.300   1.2956   0.04634   0.03778  -0.0472  0.0143  1.0000  -3.1936   0.0000   0.0000   0.0000   0.2655
  12.400   1.2907   0.04781   0.03922  -0.0467  0.0062  1.0000  -3.2128   0.0000   0.0000   0.0000   0.2650
  12.500   1.2878   0.04912   0.04053  -0.0463  0.0026  1.0000  -3.2420   0.0000   0.0000   0.0000   0.2646
  12.600   1.2890   0.05002   0.04146  -0.0460  0.0020  1.0000  -3.2934   0.0000   0.0000   0.0000   0.2642
  12.700   1.2912   0.05082   0.04228  -0.0458  0.0020  1.0000  -3.3509   0.0000   0.0000   0.0000   0.2637
  12.800   1.2933   0.05164   0.04314  -0.0455  0.0019  1.0000  -3.4074   0.0000   0.0000   0.0000   0.2633
  12.900   1.2950   0.05251   0.04404  -0.0453  0.0018  1.0000  -3.4631   0.0000   0.0000   0.0000   0.2629
  13.000   1.2969   0.05337   0.04494  -0.0451  0.0017  1.0000  -3.5194   0.0000   0.0000   0.0000   0.2625
  13.100   1.2988   0.05423   0.04583  -0.0449  0.0016  1.0000  -3.5766   0.0000   0.0000   0.0000   0.2621
  13.200   1.3008   0.05509   0.04672  -0.0448  0.0016  1.0000  -3.6343   0.0000   0.0000   0.0000   0.2617
  13.300   1.3027   0.05598   0.04764  -0.0446  0.0016  1.0000  -3.6916   0.0000   0.0000   0.0000   0.2613
  13.400   1.3043   0.05690   0.04860  -0.0445  0.0015  1.0000  -3.7478   0.0000   0.0000   0.0000   0.2609
  13.500   1.3059   0.05783   0.04957  -0.0443  0.0015  1.0000  -3.8043   0.0000   0.0000   0.0000   0.2606
  13.600   1.3076   0.05877   0.05053  -0.0442  0.0015  1.0000  -3.8615   0.0000   0.0000   0.0000   0.2602
  13.700   1.3093   0.05971   0.05151  -0.0441  0.0014  1.0000  -3.9189   0.0000   0.0000   0.0000   0.2599
  13.800   1.3106   0.06070   0.05254  -0.0440  0.0014  1.0000  -3.9746   0.0000   0.0000   0.0000   0.2596
  13.900   1.3119   0.06171   0.05358  -0.0440  0.0014  1.0000  -4.0302   0.0000   0.0000   0.0000   0.2593
  14.000   1.3133   0.06271   0.05463  -0.0439  0.0014  1.0000  -4.0866   0.0000   0.0000   0.0000   0.2590
  14.100   1.3147   0.06373   0.05568  -0.0439  0.0013  1.0000  -4.1429   0.0000   0.0000   0.0000   0.2587
  14.200   1.3157   0.06480   0.05679  -0.0439  0.0013  1.0000  -4.1973   0.0000   0.0000   0.0000   0.2585
  14.300   1.3166   0.06588   0.05791  -0.0438  0.0013  1.0000  -4.2515   0.0000   0.0000   0.0000   0.2583
  14.400   1.3177   0.06696   0.05903  -0.0439  0.0013  1.0000  -4.3067   0.0000   0.0000   0.0000   0.2580
  14.500   1.3188   0.06805   0.06015  -0.0439  0.0013  1.0000  -4.3620   0.0000   0.0000   0.0000   0.2578
  14.600   1.3195   0.06920   0.06135  -0.0439  0.0013  1.0000  -4.4154   0.0000   0.0000   0.0000   0.2576
  14.700   1.3201   0.07036   0.06256  -0.0440  0.0013  1.0000  -4.4683   0.0000   0.0000   0.0000   0.2574
  14.800   1.3209   0.07153   0.06376  -0.0441  0.0012  1.0000  -4.5219   0.0000   0.0000   0.0000   0.2572
  14.900   1.3216   0.07270   0.06498  -0.0441  0.0012  1.0000  -4.5751   0.0000   0.0000   0.0000   0.2571
  15.000   1.3219   0.07394   0.06626  -0.0443  0.0012  1.0000  -4.6261   0.0000   0.0000   0.0000   0.2569


