xflr5 v6.59

 Calculated polar for: SF-12

 1 1 Reynolds number fixed          Mach number fixed         

 xtrf =   1.000 (top)        1.000 (bottom)
 Mach =   0.050     Re =     0.080 e 6     Ncrit =   5.000

  alpha     CL        CD       CDp       Cm    Top Xtr Bot Xtr   Cpmin    Chinge    XCp    
 ------- -------- --------- --------- -------- ------- ------- -------- --------- ---------
  -3.000   0.2664   0.02546   0.01565  -0.1271  0.7505  0.1086  -1.5482   0.0000   0.0000   0.0000   0.7352
  -2.900   0.2748   0.02535   0.01551  -0.1267  0.7478  0.1110  -1.5141   0.0000   0.0000   0.0000   0.7186
  -2.800   0.2846   0.02513   0.01514  -0.1265  0.7456  0.1146  -1.4831   0.0000   0.0000   0.0000   0.7012
  -2.700   0.2947   0.02506   0.01512  -0.1263  0.7436  0.1170  -1.4390   0.0000   0.0000   0.0000   0.6849
  -2.600   0.3057   0.02492   0.01495  -0.1262  0.7418  0.1203  -1.3975   0.0000   0.0000   0.0000   0.6688
  -2.500   0.3174   0.02468   0.01460  -0.1262  0.7402  0.1243  -1.3603   0.0000   0.0000   0.0000   0.6531
  -2.400   0.3291   0.02454   0.01446  -0.1262  0.7388  0.1271  -1.3151   0.0000   0.0000   0.0000   0.6386
  -2.300   0.3414   0.02436   0.01421  -0.1263  0.7374  0.1312  -1.2728   0.0000   0.0000   0.0000   0.6246
  -2.200   0.3539   0.02417   0.01398  -0.1265  0.7362  0.1353  -1.2296   0.0000   0.0000   0.0000   0.6115
  -2.100   0.3652   0.02407   0.01386  -0.1264  0.7346  0.1391  -1.1873   0.0000   0.0000   0.0000   0.6000
  -2.000   0.3689   0.02419   0.01395  -0.1253  0.7308  0.1423  -1.1634   0.0000   0.0000   0.0000   0.5933
  -1.900   0.3760   0.02421   0.01400  -0.1247  0.7278  0.1453  -1.1321   0.0000   0.0000   0.0000   0.5850
  -1.800   0.3849   0.02419   0.01398  -0.1244  0.7253  0.1491  -1.0991   0.0000   0.0000   0.0000   0.5761
  -1.700   0.3952   0.02409   0.01383  -0.1241  0.7232  0.1539  -1.0666   0.0000   0.0000   0.0000   0.5669
  -1.600   0.4060   0.02401   0.01376  -0.1240  0.7213  0.1578  -1.0295   0.0000   0.0000   0.0000   0.5579
  -1.500   0.4177   0.02388   0.01356  -0.1240  0.7196  0.1633  -0.9943   0.0000   0.0000   0.0000   0.5490
  -1.400   0.4296   0.02376   0.01346  -0.1240  0.7181  0.1678  -0.9557   0.0000   0.0000   0.0000   0.5407
  -1.300   0.4421   0.02362   0.01325  -0.1241  0.7168  0.1738  -0.9189   0.0000   0.0000   0.0000   0.5324
  -1.200   0.4546   0.02348   0.01312  -0.1243  0.7155  0.1786  -0.8799   0.0000   0.0000   0.0000   0.5247
  -1.100   0.4676   0.02335   0.01292  -0.1244  0.7143  0.1852  -0.8424   0.0000   0.0000   0.0000   0.5172
  -1.000   0.4691   0.02361   0.01326  -0.1231  0.7099  0.1879  -0.8274   0.0000   0.0000   0.0000   0.5133
  -0.900   0.4759   0.02369   0.01335  -0.1224  0.7068  0.1926  -0.8334   0.0000   0.0000   0.0000   0.5079
  -0.800   0.4850   0.02368   0.01333  -0.1220  0.7043  0.1981  -0.8410   0.0000   0.0000   0.0000   0.5021
  -0.700   0.4951   0.02363   0.01329  -0.1218  0.7022  0.2037  -0.8495   0.0000   0.0000   0.0000   0.4963
  -0.600   0.5062   0.02355   0.01320  -0.1217  0.7004  0.2100  -0.8589   0.0000   0.0000   0.0000   0.4905
  -0.500   0.5180   0.02346   0.01309  -0.1217  0.6987  0.2167  -0.8689   0.0000   0.0000   0.0000   0.4848
  -0.400   0.5303   0.02334   0.01296  -0.1217  0.6972  0.2233  -0.8793   0.0000   0.0000   0.0000   0.4793
  -0.200   0.5565   0.02308   0.01265  -0.1221  0.6947  0.2388  -0.9015   0.0000   0.0000   0.0000   0.4687
  -0.100   0.5615   0.02326   0.01284  -0.1212  0.6913  0.2446  -0.9068   0.0000   0.0000   0.0000   0.4650
   0.000   0.5659   0.02343   0.01306  -0.1202  0.6876  0.2498  -0.9118   0.0000   0.0000   0.0000   0.4614
   0.100   0.5742   0.02348   0.01311  -0.1197  0.6848  0.2573  -0.9195   0.0000   0.0000   0.0000   0.4573
   0.200   0.5843   0.02345   0.01309  -0.1195  0.6825  0.2652  -0.9287   0.0000   0.0000   0.0000   0.4532
   0.300   0.5956   0.02337   0.01302  -0.1194  0.6806  0.2739  -0.9391   0.0000   0.0000   0.0000   0.4490
   0.400   0.6077   0.02327   0.01292  -0.1195  0.6789  0.2839  -0.9503   0.0000   0.0000   0.0000   0.4450
   0.500   0.6204   0.02314   0.01279  -0.1196  0.6774  0.2950  -0.9618   0.0000   0.0000   0.0000   0.4410
   0.600   0.6335   0.02299   0.01265  -0.1198  0.6760  0.3071  -0.9738   0.0000   0.0000   0.0000   0.4372
   0.700   0.6469   0.02283   0.01250  -0.1201  0.6747  0.3207  -0.9860   0.0000   0.0000   0.0000   0.4335
   0.800   0.6498   0.02305   0.01278  -0.1189  0.6708  0.3299  -0.9905   0.0000   0.0000   0.0000   0.4307
   0.900   0.6541   0.02321   0.01301  -0.1179  0.6671  0.3417  -0.9961   0.0000   0.0000   0.0000   0.4278
   1.000   0.6625   0.02319   0.01306  -0.1175  0.6644  0.3590  -1.0048   0.0000   0.0000   0.0000   0.4247
   1.100   0.6727   0.02307   0.01304  -0.1173  0.6621  0.3843  -1.0151   0.0000   0.0000   0.0000   0.4216
   1.200   0.6837   0.02281   0.01298  -0.1173  0.6603  0.4336  -1.0260   0.0000   0.0000   0.0000   0.4186
   1.300   0.7063   0.02158   0.01287  -0.1188  0.6589  1.0000  -1.0459   0.0000   0.0000   0.0000   0.4152
   1.400   0.7193   0.02154   0.01273  -0.1190  0.6573  1.0000  -1.0587   0.0000   0.0000   0.0000   0.4122
   1.500   0.7327   0.02149   0.01258  -0.1192  0.6559  1.0000  -1.0720   0.0000   0.0000   0.0000   0.4093
   1.600   0.7436   0.02153   0.01255  -0.1190  0.6539  1.0000  -1.0833   0.0000   0.0000   0.0000   0.4066
   1.700   0.7428   0.02198   0.01301  -0.1173  0.6490  1.0000  -1.0852   0.0000   0.0000   0.0000   0.4043
   1.800   0.7497   0.02215   0.01315  -0.1166  0.6458  1.0000  -1.0937   0.0000   0.0000   0.0000   0.4018
   1.900   0.7594   0.02221   0.01316  -0.1163  0.6433  1.0000  -1.1045   0.0000   0.0000   0.0000   0.3992
   2.000   0.7707   0.02222   0.01311  -0.1162  0.6412  1.0000  -1.1167   0.0000   0.0000   0.0000   0.3967
   2.100   0.7832   0.02219   0.01301  -0.1163  0.6394  1.0000  -1.1298   0.0000   0.0000   0.0000   0.3943
   2.200   0.7963   0.02213   0.01290  -0.1164  0.6378  1.0000  -1.1437   0.0000   0.0000   0.0000   0.3919
   2.300   0.8101   0.02206   0.01276  -0.1167  0.6363  1.0000  -1.1585   0.0000   0.0000   0.0000   0.3896
   2.400   0.8141   0.02234   0.01303  -0.1156  0.6327  1.0000  -1.1650   0.0000   0.0000   0.0000   0.3874
   2.500   0.8163   0.02267   0.01336  -0.1143  0.6285  1.0000  -1.1701   0.0000   0.0000   0.0000   0.3852
   2.600   0.8243   0.02278   0.01346  -0.1137  0.6255  1.0000  -1.1801   0.0000   0.0000   0.0000   0.3831
   2.700   0.8348   0.02281   0.01344  -0.1136  0.6231  1.0000  -1.1922   0.0000   0.0000   0.0000   0.3810
   2.800   0.8468   0.02279   0.01337  -0.1136  0.6211  1.0000  -1.2061   0.0000   0.0000   0.0000   0.3789
   2.900   0.8599   0.02273   0.01326  -0.1137  0.6193  1.0000  -1.2211   0.0000   0.0000   0.0000   0.3769
   3.000   0.8739   0.02264   0.01312  -0.1140  0.6178  1.0000  -1.2368   0.0000   0.0000   0.0000   0.3750
   3.100   0.8814   0.02279   0.01325  -0.1134  0.6149  1.0000  -1.2469   0.0000   0.0000   0.0000   0.3731
   3.200   0.8808   0.02321   0.01369  -0.1117  0.6102  1.0000  -1.2499   0.0000   0.0000   0.0000   0.3711
   3.300   0.8878   0.02335   0.01383  -0.1110  0.6070  1.0000  -1.2600   0.0000   0.0000   0.0000   0.3692
   3.400   0.8980   0.02338   0.01383  -0.1108  0.6045  1.0000  -1.2730   0.0000   0.0000   0.0000   0.3673
   3.500   0.9101   0.02335   0.01376  -0.1108  0.6023  1.0000  -1.2878   0.0000   0.0000   0.0000   0.3656
   3.600   0.9236   0.02327   0.01364  -0.1110  0.6005  1.0000  -1.3038   0.0000   0.0000   0.0000   0.3639
   3.700   0.9382   0.02316   0.01352  -0.1114  0.5988  1.0000  -1.3208   0.0000   0.0000   0.0000   0.3623
   3.800   0.9401   0.02349   0.01387  -0.1100  0.5949  1.0000  -1.3269   0.0000   0.0000   0.0000   0.3604
   3.900   0.9416   0.02382   0.01422  -0.1086  0.5907  1.0000  -1.3326   0.0000   0.0000   0.0000   0.3586
   4.000   0.9495   0.02393   0.01432  -0.1080  0.5876  1.0000  -1.3442   0.0000   0.0000   0.0000   0.3569
   4.100   0.9603   0.02393   0.01429  -0.1079  0.5851  1.0000  -1.3585   0.0000   0.0000   0.0000   0.3553
   4.200   0.9732   0.02386   0.01420  -0.1080  0.5830  1.0000  -1.3747   0.0000   0.0000   0.0000   0.3538
   4.300   0.9877   0.02375   0.01405  -0.1083  0.5812  1.0000  -1.3928   0.0000   0.0000   0.0000   0.3524
   4.400   0.9984   0.02378   0.01405  -0.1082  0.5787  1.0000  -1.4076   0.0000   0.0000   0.0000   0.3509
   4.500   0.9942   0.02429   0.01462  -0.1060  0.5737  1.0000  -1.4085   0.0000   0.0000   0.0000   0.3490
   4.600   0.9999   0.02446   0.01479  -0.1051  0.5702  1.0000  -1.4186   0.0000   0.0000   0.0000   0.3474
   4.700   1.0098   0.02449   0.01481  -0.1048  0.5675  1.0000  -1.4328   0.0000   0.0000   0.0000   0.3459
   4.800   1.0225   0.02443   0.01473  -0.1049  0.5652  1.0000  -1.4497   0.0000   0.0000   0.0000   0.3446
   4.900   1.0371   0.02431   0.01460  -0.1053  0.5632  1.0000  -1.4691   0.0000   0.0000   0.0000   0.3434
   5.000   1.0486   0.02431   0.01458  -0.1052  0.5607  1.0000  -1.4855   0.0000   0.0000   0.0000   0.3421
   5.100   1.0434   0.02484   0.01516  -0.1029  0.5557  1.0000  -1.4857   0.0000   0.0000   0.0000   0.3402
   5.200   1.0483   0.02503   0.01536  -0.1019  0.5522  1.0000  -1.4957   0.0000   0.0000   0.0000   0.3386
   5.300   1.0581   0.02506   0.01538  -0.1016  0.5493  1.0000  -1.5106   0.0000   0.0000   0.0000   0.3373
   5.400   1.0713   0.02498   0.01529  -0.1018  0.5469  1.0000  -1.5292   0.0000   0.0000   0.0000   0.3361
   5.500   1.0867   0.02484   0.01512  -0.1022  0.5448  1.0000  -1.5502   0.0000   0.0000   0.0000   0.3351
   5.600   1.0904   0.02508   0.01537  -0.1011  0.5413  1.0000  -1.5597   0.0000   0.0000   0.0000   0.3336
   5.700   1.0882   0.02550   0.01583  -0.0992  0.5368  1.0000  -1.5632   0.0000   0.0000   0.0000   0.3318
   5.800   1.0940   0.02565   0.01598  -0.0983  0.5334  1.0000  -1.5747   0.0000   0.0000   0.0000   0.3304
   5.900   1.1052   0.02563   0.01596  -0.0982  0.5306  1.0000  -1.5919   0.0000   0.0000   0.0000   0.3293
   6.000   1.1198   0.02552   0.01583  -0.0986  0.5281  1.0000  -1.6132   0.0000   0.0000   0.0000   0.3283
   6.200   1.1261   0.02598   0.01634  -0.0961  0.5211  1.0000  -1.6322   0.0000   0.0000   0.0000   0.3253
   6.300   1.1272   0.02625   0.01663  -0.0946  0.5173  1.0000  -1.6396   0.0000   0.0000   0.0000   0.3237
   6.400   1.1359   0.02631   0.01669  -0.0941  0.5141  1.0000  -1.6549   0.0000   0.0000   0.0000   0.3225
   6.500   1.1495   0.02624   0.01660  -0.0944  0.5114  1.0000  -1.6757   0.0000   0.0000   0.0000   0.3216
   6.600   1.1668   0.02607   0.01640  -0.0952  0.5090  1.0000  -1.7009   0.0000   0.0000   0.0000   0.3209
   6.700   1.1607   0.02656   0.01694  -0.0926  0.5048  1.0000  -1.7012   0.0000   0.0000   0.0000   0.3190
   6.800   1.1596   0.02694   0.01734  -0.0909  0.5007  1.0000  -1.7066   0.0000   0.0000   0.0000   0.3174
   6.900   1.1667   0.02706   0.01747  -0.0902  0.4973  1.0000  -1.7210   0.0000   0.0000   0.0000   0.3162
   7.000   1.1791   0.02701   0.01741  -0.0903  0.4944  1.0000  -1.7413   0.0000   0.0000   0.0000   0.3153
   7.100   1.1958   0.02684   0.01721  -0.0909  0.4919  1.0000  -1.7670   0.0000   0.0000   0.0000   0.3146
   7.200   1.1916   0.02733   0.01774  -0.0888  0.4878  1.0000  -1.7694   0.0000   0.0000   0.0000   0.3130
   7.300   1.1901   0.02776   0.01820  -0.0871  0.4837  1.0000  -1.7748   0.0000   0.0000   0.0000   0.3115
   7.400   1.1967   0.02791   0.01836  -0.0864  0.4802  1.0000  -1.7893   0.0000   0.0000   0.0000   0.3103
   7.500   1.2088   0.02787   0.01830  -0.0864  0.4772  1.0000  -1.8101   0.0000   0.0000   0.0000   0.3095
   7.600   1.2254   0.02769   0.01813  -0.0870  0.4746  1.0000  -1.8370   0.0000   0.0000   0.0000   0.3088
   7.700   1.2191   0.02831   0.01880  -0.0847  0.4703  1.0000  -1.8370   0.0000   0.0000   0.0000   0.3072
   7.800   1.2189   0.02872   0.01924  -0.0833  0.4663  1.0000  -1.8442   0.0000   0.0000   0.0000   0.3058
   7.900   1.2260   0.02887   0.01940  -0.0827  0.4628  1.0000  -1.8601   0.0000   0.0000   0.0000   0.3048
   8.000   1.2385   0.02881   0.01933  -0.0827  0.4598  1.0000  -1.8824   0.0000   0.0000   0.0000   0.3040
   8.100   1.2514   0.02876   0.01926  -0.0829  0.4569  1.0000  -1.9062   0.0000   0.0000   0.0000   0.3032
   8.200   1.2444   0.02946   0.02002  -0.0807  0.4526  1.0000  -1.9054   0.0000   0.0000   0.0000   0.3017
   8.300   1.2463   0.02983   0.02042  -0.0796  0.4487  1.0000  -1.9155   0.0000   0.0000   0.0000   0.3005
   8.400   1.2545   0.02994   0.02053  -0.0791  0.4453  1.0000  -1.9337   0.0000   0.0000   0.0000   0.2996
   8.500   1.2680   0.02985   0.02042  -0.0793  0.4423  1.0000  -1.9586   0.0000   0.0000   0.0000   0.2989
   8.600   1.2721   0.03016   0.02074  -0.0784  0.4389  1.0000  -1.9722   0.0000   0.0000   0.0000   0.2978
   8.700   1.2687   0.03077   0.02141  -0.0768  0.4347  1.0000  -1.9762   0.0000   0.0000   0.0000   0.2965
   8.800   1.2727   0.03108   0.02174  -0.0760  0.4310  1.0000  -1.9897   0.0000   0.0000   0.0000   0.2955
   8.900   1.2825   0.03114   0.02182  -0.0757  0.4278  1.0000  -2.0109   0.0000   0.0000   0.0000   0.2947
   9.000   1.2974   0.03098   0.02164  -0.0760  0.4249  1.0000  -2.0398   0.0000   0.0000   0.0000   0.2941
   9.100   1.2924   0.03171   0.02242  -0.0743  0.4209  1.0000  -2.0418   0.0000   0.0000   0.0000   0.2928
   9.200   1.2923   0.03224   0.02299  -0.0731  0.4170  1.0000  -2.0505   0.0000   0.0000   0.0000   0.2917
   9.300   1.2984   0.03247   0.02323  -0.0725  0.4135  1.0000  -2.0678   0.0000   0.0000   0.0000   0.2908
   9.400   1.3098   0.03245   0.02320  -0.0724  0.4104  1.0000  -2.0935   0.0000   0.0000   0.0000   0.2901
   9.500   1.3166   0.03267   0.02343  -0.0719  0.4072  1.0000  -2.1127   0.0000   0.0000   0.0000   0.2893
   9.600   1.3127   0.03341   0.02423  -0.0704  0.4032  1.0000  -2.1170   0.0000   0.0000   0.0000   0.2881
   9.700   1.3153   0.03384   0.02469  -0.0696  0.3995  1.0000  -2.1309   0.0000   0.0000   0.0000   0.2872
   9.800   1.3234   0.03399   0.02484  -0.0692  0.3963  1.0000  -2.1540   0.0000   0.0000   0.0000   0.2864
   9.900   1.3368   0.03387   0.02471  -0.0693  0.3934  1.0000  -2.1868   0.0000   0.0000   0.0000   0.2858
  10.000   1.3336   0.03462   0.02551  -0.0680  0.3896  1.0000  -2.1939   0.0000   0.0000   0.0000   0.2847
  10.100   1.3328   0.03526   0.02619  -0.0669  0.3858  1.0000  -2.2056   0.0000   0.0000   0.0000   0.2838
  10.200   1.3377   0.03559   0.02655  -0.0663  0.3824  1.0000  -2.2355   0.0000   0.0000   0.0000   0.2830
  10.300   1.3477   0.03564   0.02659  -0.0660  0.3793  1.0000  -2.3288   0.0000   0.0000   0.0000   0.2822
  10.400   1.3551   0.03585   0.02683  -0.0656  0.3762  1.0000  -2.4113   0.0000   0.0000   0.0000   0.2815
  10.500   1.3508   0.03672   0.02777  -0.0644  0.3725  1.0000  -2.4376   0.0000   0.0000   0.0000   0.2805
  10.600   1.3524   0.03726   0.02835  -0.0636  0.3689  1.0000  -2.4926   0.0000   0.0000   0.0000   0.2797
  10.700   1.3593   0.03749   0.02859  -0.0631  0.3657  1.0000  -2.5733   0.0000   0.0000   0.0000   0.2789
  10.800   1.3713   0.03742   0.02850  -0.0630  0.3628  1.0000  -2.6809   0.0000   0.0000   0.0000   0.2783
  10.900   1.3692   0.03821   0.02935  -0.0620  0.3593  1.0000  -2.7185   0.0000   0.0000   0.0000   0.2774
  11.000   1.3676   0.03898   0.03018  -0.0611  0.3557  1.0000  -2.7582   0.0000   0.0000   0.0000   0.2766
  11.100   1.3712   0.03942   0.03065  -0.0604  0.3524  1.0000  -2.8254   0.0000   0.0000   0.0000   0.2758
  11.200   1.3800   0.03955   0.03077  -0.0601  0.3494  1.0000  -2.9191   0.0000   0.0000   0.0000   0.2752
  11.300   1.3882   0.03972   0.03094  -0.0598  0.3465  1.0000  -3.0109   0.0000   0.0000   0.0000   0.2745
  11.400   1.3830   0.04075   0.03206  -0.0587  0.3429  1.0000  -3.0335   0.0000   0.0000   0.0000   0.2737
  11.500   1.3834   0.04144   0.03279  -0.0580  0.3395  1.0000  -3.0854   0.0000   0.0000   0.0000   0.2729
  11.600   1.3890   0.04177   0.03314  -0.0575  0.3363  1.0000  -3.1648   0.0000   0.0000   0.0000   0.2722
  11.700   1.3998   0.04176   0.03312  -0.0573  0.3335  1.0000  -3.2730   0.0000   0.0000   0.0000   0.2716
  11.800   1.3988   0.04257   0.03398  -0.0565  0.3303  1.0000  -3.3182   0.0000   0.0000   0.0000   0.2709
  11.900   1.3958   0.04353   0.03503  -0.0557  0.3269  1.0000  -3.3522   0.0000   0.0000   0.0000   0.2701
  12.000   1.3981   0.04411   0.03565  -0.0551  0.3236  1.0000  -3.4157   0.0000   0.0000   0.0000   0.2695
  12.100   1.4055   0.04432   0.03586  -0.0548  0.3207  1.0000  -3.5078   0.0000   0.0000   0.0000   0.2688
  12.200   1.4146   0.04441   0.03595  -0.0545  0.3179  1.0000  -3.6104   0.0000   0.0000   0.0000   0.2682
  12.300   1.4081   0.04568   0.03731  -0.0536  0.3145  1.0000  -3.6254   0.0000   0.0000   0.0000   0.2675
  12.400   1.4070   0.04655   0.03824  -0.0529  0.3112  1.0000  -3.6711   0.0000   0.0000   0.0000   0.2669
  12.500   1.4113   0.04701   0.03872  -0.0525  0.3081  1.0000  -3.7474   0.0000   0.0000   0.0000   0.2662
  12.600   1.4209   0.04704   0.03874  -0.0522  0.3053  1.0000  -3.8553   0.0000   0.0000   0.0000   0.2656
  12.700   1.4200   0.04792   0.03968  -0.0516  0.3023  1.0000  -3.9024   0.0000   0.0000   0.0000   0.2650
  12.800   1.4156   0.04911   0.04094  -0.0509  0.2990  1.0000  -3.9294   0.0000   0.0000   0.0000   0.2644
  12.900   1.4166   0.04986   0.04173  -0.0504  0.2958  1.0000  -3.9878   0.0000   0.0000   0.0000   0.2638
  13.000   1.4231   0.05013   0.04201  -0.0501  0.2928  1.0000  -4.0793   0.0000   0.0000   0.0000   0.2632
  13.100   1.4306   0.05032   0.04221  -0.0497  0.2900  1.0000  -4.1773   0.0000   0.0000   0.0000   0.2626
  13.200   1.4231   0.05184   0.04382  -0.0491  0.2868  1.0000  -4.1855   0.0000   0.0000   0.0000   0.2621
  13.300   1.4210   0.05289   0.04493  -0.0486  0.2836  1.0000  -4.2262   0.0000   0.0000   0.0000   0.2616
  13.400   1.4246   0.05342   0.04549  -0.0482  0.2805  1.0000  -4.3016   0.0000   0.0000   0.0000   0.2610
  13.500   1.4349   0.05329   0.04533  -0.0479  0.2772  1.0000  -4.4195   0.0000   0.0000   0.0000   0.2604
  13.600   1.4257   0.05504   0.04720  -0.0473  0.2741  1.0000  -4.4169   0.0000   0.0000   0.0000   0.2600
  13.700   1.4214   0.05635   0.04857  -0.0469  0.2707  1.0000  -4.4442   0.0000   0.0000   0.0000   0.2596
  13.800   1.4234   0.05699   0.04922  -0.0465  0.2671  1.0000  -4.5117   0.0000   0.0000   0.0000   0.2590
  13.900   1.4276   0.05739   0.04960  -0.0461  0.2634  1.0000  -4.5939   0.0000   0.0000   0.0000   0.2584
  14.000   1.4195   0.05918   0.05149  -0.0458  0.2601  1.0000  -4.5962   0.0000   0.0000   0.0000   0.2582
  14.100   1.4162   0.06044   0.05280  -0.0455  0.2565  1.0000  -4.6295   0.0000   0.0000   0.0000   0.2578
  14.200   1.4203   0.06082   0.05315  -0.0451  0.2525  1.0000  -4.7124   0.0000   0.0000   0.0000   0.2572
  14.300   1.4155   0.06230   0.05468  -0.0449  0.2491  1.0000  -4.7361   0.0000   0.0000   0.0000   0.2570
  14.400   1.4094   0.06398   0.05643  -0.0447  0.2456  1.0000  -4.7505   0.0000   0.0000   0.0000   0.2568
  14.500   1.4090   0.06494   0.05741  -0.0445  0.2416  1.0000  -4.8032   0.0000   0.0000   0.0000   0.2564
  14.600   1.4092   0.06583   0.05829  -0.0443  0.2378  1.0000  -4.8606   0.0000   0.0000   0.0000   0.2560
  14.700   1.4018   0.06778   0.06034  -0.0443  0.2345  1.0000  -4.8650   0.0000   0.0000   0.0000   0.2559
  14.800   1.3988   0.06917   0.06175  -0.0442  0.2307  1.0000  -4.8991   0.0000   0.0000   0.0000   0.2557
  14.900   1.4010   0.06980   0.06234  -0.0440  0.2265  1.0000  -4.9708   0.0000   0.0000   0.0000   0.2553
  15.000   1.3931   0.07195   0.06460  -0.0441  0.2233  1.0000  -4.9693   0.0000   0.0000   0.0000   0.2553


