xflr5 v6.59

 Calculated polar for: SF-15

 1 1 Reynolds number fixed          Mach number fixed         

 xtrf =   1.000 (top)        1.000 (bottom)
 Mach =   0.050     Re =     0.100 e 6     Ncrit =   5.000

  alpha     CL        CD       CDp       Cm    Top Xtr Bot Xtr   Cpmin    Chinge    XCp    
 ------- -------- --------- --------- -------- ------- ------- -------- --------- ---------
  -3.000   0.4655   0.02223   0.01372  -0.1763  0.7849  0.0552  -1.8492   0.0000   0.0000   0.0000   0.6334
  -2.900   0.4762   0.02193   0.01332  -0.1763  0.7820  0.0573  -1.8047   0.0000   0.0000   0.0000   0.6246
  -2.800   0.4842   0.02184   0.01324  -0.1758  0.7781  0.0589  -1.7535   0.0000   0.0000   0.0000   0.6173
  -2.700   0.4949   0.02157   0.01289  -0.1758  0.7750  0.0609  -1.7075   0.0000   0.0000   0.0000   0.6090
  -2.600   0.5072   0.02117   0.01234  -0.1759  0.7723  0.0629  -1.6693   0.0000   0.0000   0.0000   0.6005
  -2.500   0.5198   0.02083   0.01196  -0.1762  0.7699  0.0646  -1.6171   0.0000   0.0000   0.0000   0.5923
  -2.400   0.5328   0.02059   0.01168  -0.1765  0.7678  0.0669  -1.5561   0.0000   0.0000   0.0000   0.5844
  -2.300   0.5466   0.02029   0.01125  -0.1769  0.7659  0.0707  -1.5032   0.0000   0.0000   0.0000   0.5765
  -2.200   0.5602   0.02005   0.01102  -0.1773  0.7642  0.0736  -1.4374   0.0000   0.0000   0.0000   0.5692
  -2.100   0.5708   0.01989   0.01080  -0.1772  0.7613  0.0765  -1.3878   0.0000   0.0000   0.0000   0.5629
  -2.000   0.5793   0.01975   0.01062  -0.1767  0.7575  0.0790  -1.3474   0.0000   0.0000   0.0000   0.5573
  -1.900   0.5895   0.01963   0.01050  -0.1766  0.7542  0.0819  -1.2924   0.0000   0.0000   0.0000   0.5516
  -1.800   0.6011   0.01947   0.01027  -0.1766  0.7515  0.0864  -1.2398   0.0000   0.0000   0.0000   0.5456
  -1.700   0.6133   0.01930   0.01012  -0.1768  0.7490  0.0904  -1.1844   0.0000   0.0000   0.0000   0.5399
  -1.600   0.6263   0.01910   0.00985  -0.1770  0.7468  0.0953  -1.1384   0.0000   0.0000   0.0000   0.5341
  -1.500   0.6394   0.01891   0.00966  -0.1773  0.7449  0.1001  -1.0853   0.0000   0.0000   0.0000   0.5286
  -1.400   0.6531   0.01872   0.00944  -0.1777  0.7431  0.1063  -1.0336   0.0000   0.0000   0.0000   0.5231
  -1.300   0.6606   0.01872   0.00944  -0.1771  0.7391  0.1114  -0.9956   0.0000   0.0000   0.0000   0.5189
  -1.200   0.6701   0.01866   0.00940  -0.1768  0.7356  0.1169  -0.9524   0.0000   0.0000   0.0000   0.5146
  -1.100   0.6810   0.01857   0.00930  -0.1767  0.7326  0.1241  -0.9107   0.0000   0.0000   0.0000   0.5101
  -1.000   0.6927   0.01845   0.00917  -0.1768  0.7299  0.1324  -0.9201   0.0000   0.0000   0.0000   0.5056
  -0.900   0.7052   0.01832   0.00904  -0.1770  0.7275  0.1419  -0.9302   0.0000   0.0000   0.0000   0.5012
  -0.800   0.7182   0.01818   0.00889  -0.1773  0.7254  0.1528  -0.9409   0.0000   0.0000   0.0000   0.4969
  -0.700   0.7316   0.01803   0.00873  -0.1776  0.7235  0.1653  -0.9518   0.0000   0.0000   0.0000   0.4927
  -0.600   0.7400   0.01804   0.00878  -0.1772  0.7198  0.1773  -0.9594   0.0000   0.0000   0.0000   0.4891
  -0.500   0.7493   0.01802   0.00879  -0.1769  0.7162  0.1913  -0.9679   0.0000   0.0000   0.0000   0.4856
  -0.400   0.7601   0.01796   0.00877  -0.1768  0.7131  0.2085  -0.9774   0.0000   0.0000   0.0000   0.4820
  -0.300   0.7718   0.01788   0.00870  -0.1769  0.7103  0.2297  -0.9876   0.0000   0.0000   0.0000   0.4784
  -0.200   0.7842   0.01777   0.00863  -0.1771  0.7079  0.2547  -0.9986   0.0000   0.0000   0.0000   0.4749
  -0.100   0.7971   0.01765   0.00855  -0.1774  0.7057  0.2840  -1.0102   0.0000   0.0000   0.0000   0.4714
   0.000   0.8102   0.01754   0.00848  -0.1777  0.7036  0.3180  -1.0219   0.0000   0.0000   0.0000   0.4681
   0.200   0.8278   0.01755   0.00867  -0.1769  0.6962  0.3847  -1.0395   0.0000   0.0000   0.0000   0.4622
   0.300   0.8384   0.01748   0.00869  -0.1768  0.6931  0.4265  -1.0499   0.0000   0.0000   0.0000   0.4592
   0.400   0.8495   0.01739   0.00868  -0.1767  0.6904  0.4745  -1.0608   0.0000   0.0000   0.0000   0.4562
   0.500   0.8610   0.01727   0.00865  -0.1767  0.6880  0.5285  -1.0723   0.0000   0.0000   0.0000   0.4532
   0.600   0.8726   0.01711   0.00861  -0.1766  0.6858  0.5889  -1.0840   0.0000   0.0000   0.0000   0.4502
   0.700   0.8809   0.01702   0.00865  -0.1759  0.6828  0.6506  -1.0934   0.0000   0.0000   0.0000   0.4474
   0.800   0.8867   0.01691   0.00872  -0.1748  0.6792  0.7215  -1.1010   0.0000   0.0000   0.0000   0.4447
   0.900   0.8935   0.01660   0.00863  -0.1736  0.6758  1.0000  -1.1098   0.0000   0.0000   0.0000   0.4417
   1.000   0.9048   0.01666   0.00860  -0.1736  0.6728  1.0000  -1.1216   0.0000   0.0000   0.0000   0.4391
   1.100   0.9168   0.01669   0.00855  -0.1736  0.6702  1.0000  -1.1340   0.0000   0.0000   0.0000   0.4365
   1.200   0.9294   0.01671   0.00847  -0.1738  0.6678  1.0000  -1.1470   0.0000   0.0000   0.0000   0.4340
   1.300   0.9405   0.01678   0.00847  -0.1738  0.6650  1.0000  -1.1592   0.0000   0.0000   0.0000   0.4316
   1.400   0.9490   0.01691   0.00857  -0.1733  0.6611  1.0000  -1.1694   0.0000   0.0000   0.0000   0.4293
   1.500   0.9589   0.01700   0.00862  -0.1731  0.6577  1.0000  -1.1806   0.0000   0.0000   0.0000   0.4271
   1.600   0.9697   0.01707   0.00863  -0.1730  0.6546  1.0000  -1.1930   0.0000   0.0000   0.0000   0.4248
   1.700   0.9814   0.01711   0.00860  -0.1730  0.6519  1.0000  -1.2064   0.0000   0.0000   0.0000   0.4226
   1.800   0.9938   0.01714   0.00855  -0.1732  0.6495  1.0000  -1.2203   0.0000   0.0000   0.0000   0.4204
   1.900   1.0041   0.01723   0.00861  -0.1730  0.6464  1.0000  -1.2325   0.0000   0.0000   0.0000   0.4183
   2.000   1.0126   0.01736   0.00872  -0.1725  0.6426  1.0000  -1.2437   0.0000   0.0000   0.0000   0.4162
   2.100   1.0224   0.01745   0.00878  -0.1723  0.6391  1.0000  -1.2561   0.0000   0.0000   0.0000   0.4142
   2.200   1.0332   0.01752   0.00879  -0.1722  0.6360  1.0000  -1.2694   0.0000   0.0000   0.0000   0.4122
   2.300   1.0448   0.01756   0.00878  -0.1722  0.6333  1.0000  -1.2834   0.0000   0.0000   0.0000   0.4102
   2.400   1.0573   0.01760   0.00873  -0.1723  0.6309  1.0000  -1.2987   0.0000   0.0000   0.0000   0.4083
   2.500   1.0655   0.01774   0.00887  -0.1719  0.6271  1.0000  -1.3103   0.0000   0.0000   0.0000   0.4064
   2.600   1.0744   0.01786   0.00897  -0.1715  0.6234  1.0000  -1.3226   0.0000   0.0000   0.0000   0.4046
   2.700   1.0845   0.01794   0.00903  -0.1712  0.6201  1.0000  -1.3359   0.0000   0.0000   0.0000   0.4027
   2.800   1.0955   0.01801   0.00905  -0.1712  0.6171  1.0000  -1.3505   0.0000   0.0000   0.0000   0.4009
   2.900   1.1073   0.01805   0.00903  -0.1712  0.6144  1.0000  -1.3662   0.0000   0.0000   0.0000   0.3992
   3.000   1.1173   0.01815   0.00910  -0.1710  0.6112  1.0000  -1.3801   0.0000   0.0000   0.0000   0.3975
   3.100   1.1254   0.01829   0.00925  -0.1705  0.6073  1.0000  -1.3923   0.0000   0.0000   0.0000   0.3958
   3.200   1.1349   0.01840   0.00933  -0.1702  0.6038  1.0000  -1.4060   0.0000   0.0000   0.0000   0.3941
   3.300   1.1454   0.01848   0.00941  -0.1700  0.6006  1.0000  -1.4212   0.0000   0.0000   0.0000   0.3924
   3.400   1.1568   0.01853   0.00942  -0.1700  0.5978  1.0000  -1.4373   0.0000   0.0000   0.0000   0.3908
   3.500   1.1674   0.01862   0.00946  -0.1699  0.5948  1.0000  -1.4526   0.0000   0.0000   0.0000   0.3892
   3.600   1.1751   0.01877   0.00964  -0.1693  0.5908  1.0000  -1.4651   0.0000   0.0000   0.0000   0.3876
   3.700   1.1841   0.01889   0.00974  -0.1689  0.5872  1.0000  -1.4793   0.0000   0.0000   0.0000   0.3861
   3.800   1.1942   0.01897   0.00980  -0.1687  0.5839  1.0000  -1.4950   0.0000   0.0000   0.0000   0.3845
   3.900   1.2054   0.01904   0.00983  -0.1686  0.5810  1.0000  -1.5117   0.0000   0.0000   0.0000   0.3830
   4.000   1.2156   0.01913   0.00989  -0.1685  0.5779  1.0000  -1.5276   0.0000   0.0000   0.0000   0.3815
   4.100   1.2231   0.01929   0.01007  -0.1678  0.5738  1.0000  -1.5406   0.0000   0.0000   0.0000   0.3801
   4.200   1.2319   0.01941   0.01019  -0.1674  0.5701  1.0000  -1.5552   0.0000   0.0000   0.0000   0.3786
   4.300   1.2419   0.01950   0.01026  -0.1672  0.5667  1.0000  -1.5716   0.0000   0.0000   0.0000   0.3772
   4.400   1.2530   0.01957   0.01032  -0.1671  0.5638  1.0000  -1.5892   0.0000   0.0000   0.0000   0.3758
   4.500   1.2618   0.01970   0.01045  -0.1667  0.5602  1.0000  -1.6045   0.0000   0.0000   0.0000   0.3744
   4.600   1.2694   0.01986   0.01062  -0.1661  0.5562  1.0000  -1.6185   0.0000   0.0000   0.0000   0.3730
   4.700   1.2782   0.01998   0.01074  -0.1657  0.5525  1.0000  -1.6339   0.0000   0.0000   0.0000   0.3716
   4.800   1.2882   0.02007   0.01081  -0.1655  0.5492  1.0000  -1.6506   0.0000   0.0000   0.0000   0.3702
   4.900   1.2996   0.02014   0.01083  -0.1655  0.5464  1.0000  -1.6693   0.0000   0.0000   0.0000   0.3690
   5.000   1.3061   0.02032   0.01105  -0.1647  0.5421  1.0000  -1.6830   0.0000   0.0000   0.0000   0.3676
   5.100   1.3140   0.02046   0.01121  -0.1642  0.5382  1.0000  -1.6982   0.0000   0.0000   0.0000   0.3663
   5.200   1.3230   0.02058   0.01132  -0.1638  0.5346  1.0000  -1.7148   0.0000   0.0000   0.0000   0.3650
   5.300   1.3335   0.02067   0.01137  -0.1636  0.5314  1.0000  -1.7329   0.0000   0.0000   0.0000   0.3637
   5.400   1.3416   0.02081   0.01153  -0.1631  0.5276  1.0000  -1.7485   0.0000   0.0000   0.0000   0.3624
   5.500   1.3486   0.02098   0.01176  -0.1624  0.5235  1.0000  -1.7629   0.0000   0.0000   0.0000   0.3611
   5.600   1.3569   0.02111   0.01190  -0.1620  0.5197  1.0000  -1.7791   0.0000   0.0000   0.0000   0.3599
   5.700   1.3666   0.02122   0.01198  -0.1617  0.5163  1.0000  -1.7973   0.0000   0.0000   0.0000   0.3587
   5.800   1.3755   0.02134   0.01210  -0.1613  0.5128  1.0000  -1.8148   0.0000   0.0000   0.0000   0.3575
   5.900   1.3818   0.02153   0.01232  -0.1605  0.5085  1.0000  -1.8292   0.0000   0.0000   0.0000   0.3562
   6.000   1.3894   0.02168   0.01249  -0.1599  0.5046  1.0000  -1.8453   0.0000   0.0000   0.0000   0.3550
   6.100   1.3985   0.02180   0.01259  -0.1595  0.5010  1.0000  -1.8631   0.0000   0.0000   0.0000   0.3538
   6.200   1.4075   0.02192   0.01270  -0.1591  0.4976  1.0000  -1.8807   0.0000   0.0000   0.0000   0.3527
   6.300   1.4132   0.02212   0.01295  -0.1583  0.4932  1.0000  -1.8946   0.0000   0.0000   0.0000   0.3514
   6.400   1.4203   0.02228   0.01312  -0.1576  0.4892  1.0000  -1.9102   0.0000   0.0000   0.0000   0.3502
   6.500   1.4290   0.02241   0.01324  -0.1571  0.4856  1.0000  -1.9282   0.0000   0.0000   0.0000   0.3491
   6.600   1.4373   0.02256   0.01338  -0.1567  0.4819  1.0000  -1.9461   0.0000   0.0000   0.0000   0.3479
   6.700   1.4426   0.02277   0.01366  -0.1557  0.4775  1.0000  -1.9605   0.0000   0.0000   0.0000   0.3467
   6.800   1.4494   0.02294   0.01385  -0.1550  0.4735  1.0000  -1.9766   0.0000   0.0000   0.0000   0.3456
   6.900   1.4576   0.02308   0.01398  -0.1545  0.4699  1.0000  -1.9946   0.0000   0.0000   0.0000   0.3445
   7.000   1.4646   0.02325   0.01416  -0.1538  0.4660  1.0000  -2.0110   0.0000   0.0000   0.0000   0.3433
   7.100   1.4697   0.02346   0.01442  -0.1528  0.4617  1.0000  -2.0252   0.0000   0.0000   0.0000   0.3421
   7.200   1.4762   0.02364   0.01461  -0.1521  0.4577  1.0000  -2.0412   0.0000   0.0000   0.0000   0.3410
   7.300   1.4842   0.02379   0.01474  -0.1515  0.4541  1.0000  -2.0590   0.0000   0.0000   0.0000   0.3399
   7.400   1.4893   0.02400   0.01498  -0.1506  0.4500  1.0000  -2.0732   0.0000   0.0000   0.0000   0.3387
   7.500   1.4934   0.02421   0.01523  -0.1494  0.4458  1.0000  -2.0865   0.0000   0.0000   0.0000   0.3375
   7.600   1.4991   0.02439   0.01542  -0.1485  0.4419  1.0000  -2.1026   0.0000   0.0000   0.0000   0.3364
   7.700   1.5067   0.02455   0.01555  -0.1479  0.4385  1.0000  -2.1209   0.0000   0.0000   0.0000   0.3353
   7.800   1.5095   0.02480   0.01586  -0.1466  0.4342  1.0000  -2.1333   0.0000   0.0000   0.0000   0.3341
   7.900   1.5137   0.02503   0.01614  -0.1455  0.4301  1.0000  -2.1474   0.0000   0.0000   0.0000   0.3329
   8.000   1.5195   0.02523   0.01634  -0.1446  0.4263  1.0000  -2.1637   0.0000   0.0000   0.0000   0.3318
   8.100   1.5255   0.02543   0.01654  -0.1438  0.4226  1.0000  -2.1802   0.0000   0.0000   0.0000   0.3307
   8.200   1.5285   0.02571   0.01687  -0.1426  0.4183  1.0000  -2.1927   0.0000   0.0000   0.0000   0.3296
   8.300   1.5328   0.02595   0.01713  -0.1415  0.4143  1.0000  -2.2071   0.0000   0.0000   0.0000   0.3284
   8.400   1.5387   0.02616   0.01734  -0.1407  0.4107  1.0000  -2.2235   0.0000   0.0000   0.0000   0.3274
   8.500   1.5428   0.02643   0.01764  -0.1396  0.4067  1.0000  -2.2765   0.0000   0.0000   0.0000   0.3263
   8.600   1.5461   0.02672   0.01797  -0.1385  0.4026  1.0000  -2.3470   0.0000   0.0000   0.0000   0.3252
   8.700   1.5507   0.02698   0.01824  -0.1375  0.3987  1.0000  -2.4250   0.0000   0.0000   0.0000   0.3241
   8.900   1.5592   0.02755   0.01885  -0.1356  0.3910  1.0000  -2.5781   0.0000   0.0000   0.0000   0.3220
   9.000   1.5627   0.02785   0.01920  -0.1345  0.3869  1.0000  -2.6521   0.0000   0.0000   0.0000   0.3210
   9.100   1.5676   0.02813   0.01947  -0.1336  0.3833  1.0000  -2.7337   0.0000   0.0000   0.0000   0.3200
   9.200   1.5720   0.02843   0.01979  -0.1327  0.3796  1.0000  -2.8137   0.0000   0.0000   0.0000   0.3190
   9.300   1.5748   0.02879   0.02023  -0.1316  0.3755  1.0000  -2.8861   0.0000   0.0000   0.0000   0.3179
   9.400   1.5786   0.02912   0.02058  -0.1306  0.3717  1.0000  -2.9636   0.0000   0.0000   0.0000   0.3169
   9.500   1.5828   0.02942   0.02085  -0.1297  0.3676  1.0000  -3.0448   0.0000   0.0000   0.0000   0.3159
   9.600   1.5832   0.02986   0.02135  -0.1283  0.3624  1.0000  -3.1042   0.0000   0.0000   0.0000   0.3149
   9.700   1.5843   0.03026   0.02175  -0.1270  0.3570  1.0000  -3.1691   0.0000   0.0000   0.0000   0.3138
   9.800   1.5853   0.03068   0.02217  -0.1258  0.3516  1.0000  -3.2334   0.0000   0.0000   0.0000   0.3128
   9.900   1.5848   0.03117   0.02269  -0.1244  0.3456  1.0000  -3.2897   0.0000   0.0000   0.0000   0.3117
  10.000   1.5855   0.03163   0.02309  -0.1231  0.3399  1.0000  -3.3532   0.0000   0.0000   0.0000   0.3107
  10.100   1.5844   0.03219   0.02370  -0.1217  0.3337  1.0000  -3.4060   0.0000   0.0000   0.0000   0.3097
  10.200   1.5841   0.03272   0.02419  -0.1204  0.3277  1.0000  -3.4647   0.0000   0.0000   0.0000   0.3087
  10.300   1.5831   0.03332   0.02482  -0.1191  0.3214  1.0000  -3.5181   0.0000   0.0000   0.0000   0.3078
  10.400   1.5824   0.03392   0.02540  -0.1179  0.3154  1.0000  -3.5742   0.0000   0.0000   0.0000   0.3068
  10.500   1.5815   0.03456   0.02606  -0.1167  0.3092  1.0000  -3.6286   0.0000   0.0000   0.0000   0.3059
  10.600   1.5808   0.03521   0.02669  -0.1155  0.3031  1.0000  -3.6840   0.0000   0.0000   0.0000   0.3050
  10.700   1.5800   0.03589   0.02738  -0.1144  0.2972  1.0000  -3.7393   0.0000   0.0000   0.0000   0.3041
  10.800   1.5793   0.03659   0.02809  -0.1133  0.2913  1.0000  -3.7946   0.0000   0.0000   0.0000   0.3033
  10.900   1.5790   0.03729   0.02878  -0.1123  0.2858  1.0000  -3.8523   0.0000   0.0000   0.0000   0.3025
  11.000   1.5788   0.03801   0.02953  -0.1114  0.2803  1.0000  -3.9099   0.0000   0.0000   0.0000   0.3017
  11.100   1.5787   0.03874   0.03023  -0.1105  0.2757  1.0000  -3.9692   0.0000   0.0000   0.0000   0.3009
  11.200   1.5795   0.03944   0.03101  -0.1097  0.2709  1.0000  -4.0311   0.0000   0.0000   0.0000   0.3002
  11.300   1.5806   0.04014   0.03174  -0.1089  0.2669  1.0000  -4.0953   0.0000   0.0000   0.0000   0.2994
  11.400   1.5823   0.04081   0.03243  -0.1082  0.2638  1.0000  -4.1632   0.0000   0.0000   0.0000   0.2987
  11.500   1.5843   0.04148   0.03315  -0.1075  0.2605  1.0000  -4.2323   0.0000   0.0000   0.0000   0.2980
  11.600   1.5851   0.04224   0.03395  -0.1068  0.2563  1.0000  -4.2948   0.0000   0.0000   0.0000   0.2973
  11.700   1.5848   0.04307   0.03480  -0.1061  0.2520  1.0000  -4.3514   0.0000   0.0000   0.0000   0.2966
  11.800   1.5846   0.04393   0.03569  -0.1053  0.2471  1.0000  -4.4075   0.0000   0.0000   0.0000   0.2960
  11.900   1.5836   0.04487   0.03665  -0.1046  0.2419  1.0000  -4.4592   0.0000   0.0000   0.0000   0.2954
  12.000   1.5821   0.04585   0.03763  -0.1039  0.2368  1.0000  -4.5086   0.0000   0.0000   0.0000   0.2948
  12.100   1.5810   0.04685   0.03866  -0.1033  0.2312  1.0000  -4.5586   0.0000   0.0000   0.0000   0.2942
  12.300   1.5783   0.04895   0.04079  -0.1020  0.2208  1.0000  -4.6553   0.0000   0.0000   0.0000   0.2931
  12.400   1.5769   0.05003   0.04189  -0.1015  0.2161  1.0000  -4.7029   0.0000   0.0000   0.0000   0.2926
  12.500   1.5763   0.05108   0.04297  -0.1010  0.2115  1.0000  -4.7541   0.0000   0.0000   0.0000   0.2921
  12.600   1.5752   0.05219   0.04410  -0.1005  0.2066  1.0000  -4.8023   0.0000   0.0000   0.0000   0.2916
  12.700   1.5730   0.05342   0.04535  -0.1000  0.2016  1.0000  -4.8435   0.0000   0.0000   0.0000   0.2912
  12.800   1.5710   0.05468   0.04663  -0.0996  0.1955  1.0000  -4.8848   0.0000   0.0000   0.0000   0.2908
  12.900   1.5680   0.05605   0.04800  -0.0992  0.1898  1.0000  -4.9204   0.0000   0.0000   0.0000   0.2904
  13.000   1.5655   0.05742   0.04938  -0.0989  0.1835  1.0000  -4.9577   0.0000   0.0000   0.0000   0.2901
  13.100   1.5629   0.05883   0.05080  -0.0986  0.1777  1.0000  -4.9934   0.0000   0.0000   0.0000   0.2898
  13.200   1.5604   0.06025   0.05226  -0.0983  0.1719  1.0000  -5.0294   0.0000   0.0000   0.0000   0.2895
  13.300   1.5577   0.06173   0.05376  -0.0981  0.1659  1.0000  -5.0626   0.0000   0.0000   0.0000   0.2893
  13.400   1.5537   0.06339   0.05541  -0.0979  0.1594  1.0000  -5.0886   0.0000   0.0000   0.0000   0.2891
  13.500   1.5500   0.06505   0.05707  -0.0978  0.1517  1.0000  -5.1151   0.0000   0.0000   0.0000   0.2890
  13.600   1.5457   0.06684   0.05885  -0.0978  0.1439  1.0000  -5.1368   0.0000   0.0000   0.0000   0.2889
  13.700   1.5409   0.06871   0.06070  -0.0978  0.1362  1.0000  -5.1556   0.0000   0.0000   0.0000   0.2888
  13.800   1.5362   0.07062   0.06260  -0.0978  0.1285  1.0000  -5.1731   0.0000   0.0000   0.0000   0.2888
  13.900   1.5310   0.07263   0.06460  -0.0979  0.1196  1.0000  -5.1872   0.0000   0.0000   0.0000   0.2889
  14.000   1.5251   0.07479   0.06671  -0.0981  0.1101  1.0000  -5.1968   0.0000   0.0000   0.0000   0.2891
  14.100   1.5187   0.07704   0.06892  -0.0984  0.1002  1.0000  -5.2032   0.0000   0.0000   0.0000   0.2893
  14.200   1.5119   0.07940   0.07124  -0.0987  0.0901  1.0000  -5.2062   0.0000   0.0000   0.0000   0.2896
  14.300   1.5042   0.08195   0.07373  -0.0991  0.0796  1.0000  -5.2035   0.0000   0.0000   0.0000   0.2900
  14.400   1.4952   0.08473   0.07643  -0.0997  0.0688  1.0000  -5.1936   0.0000   0.0000   0.0000   0.2906
  14.500   1.4860   0.08760   0.07922  -0.1003  0.0584  1.0000  -5.1815   0.0000   0.0000   0.0000   0.2912
  14.600   1.4770   0.09049   0.08203  -0.1010  0.0487  1.0000  -5.1691   0.0000   0.0000   0.0000   0.2919
  14.700   1.4682   0.09337   0.08486  -0.1018  0.0399  1.0000  -5.1570   0.0000   0.0000   0.0000   0.2926
  14.800   1.4598   0.09625   0.08768  -0.1026  0.0320  1.0000  -5.1453   0.0000   0.0000   0.0000   0.2934
  14.900   1.4517   0.09909   0.09049  -0.1035  0.0251  1.0000  -5.1347   0.0000   0.0000   0.0000   0.2942
  15.000   1.4441   0.10190   0.09326  -0.1044  0.0194  1.0000  -5.1258   0.0000   0.0000   0.0000   0.2950


