xflr5 v6.59

 Calculated polar for: SF-12

 1 1 Reynolds number fixed          Mach number fixed         

 xtrf =   1.000 (top)        1.000 (bottom)
 Mach =   0.050     Re =     0.200 e 6     Ncrit =   5.000

  alpha     CL        CD       CDp       Cm    Top Xtr Bot Xtr   Cpmin    Chinge    XCp    
 ------- -------- --------- --------- -------- ------- ------- -------- --------- ---------
  -3.000   0.3117   0.01446   0.00598  -0.1288  0.6959  0.0838  -1.5687   0.0000   0.0000   0.0000   0.6692
  -2.900   0.3229   0.01440   0.00587  -0.1287  0.6945  0.0863  -1.5220   0.0000   0.0000   0.0000   0.6543
  -2.800   0.3337   0.01433   0.00579  -0.1287  0.6928  0.0889  -1.4771   0.0000   0.0000   0.0000   0.6406
  -2.700   0.3444   0.01427   0.00576  -0.1286  0.6908  0.0913  -1.4311   0.0000   0.0000   0.0000   0.6281
  -2.600   0.3551   0.01421   0.00569  -0.1285  0.6888  0.0941  -1.3859   0.0000   0.0000   0.0000   0.6162
  -2.500   0.3659   0.01416   0.00561  -0.1284  0.6868  0.0970  -1.3420   0.0000   0.0000   0.0000   0.6049
  -2.400   0.3767   0.01409   0.00557  -0.1283  0.6849  0.0995  -1.2968   0.0000   0.0000   0.0000   0.5943
  -2.300   0.3875   0.01404   0.00551  -0.1282  0.6830  0.1025  -1.2523   0.0000   0.0000   0.0000   0.5842
  -2.200   0.3985   0.01399   0.00543  -0.1281  0.6813  0.1059  -1.2086   0.0000   0.0000   0.0000   0.5746
  -2.100   0.4094   0.01393   0.00538  -0.1281  0.6795  0.1088  -1.1683   0.0000   0.0000   0.0000   0.5656
  -2.000   0.4205   0.01389   0.00531  -0.1280  0.6779  0.1124  -1.1289   0.0000   0.0000   0.0000   0.5569
  -1.900   0.4316   0.01384   0.00524  -0.1280  0.6763  0.1157  -1.0899   0.0000   0.0000   0.0000   0.5486
  -1.800   0.4428   0.01380   0.00519  -0.1279  0.6749  0.1192  -1.0503   0.0000   0.0000   0.0000   0.5408
  -1.700   0.4537   0.01378   0.00514  -0.1278  0.6731  0.1232  -1.0124   0.0000   0.0000   0.0000   0.5335
  -1.600   0.4642   0.01374   0.00513  -0.1277  0.6711  0.1265  -0.9748   0.0000   0.0000   0.0000   0.5266
  -1.500   0.4749   0.01371   0.00511  -0.1276  0.6689  0.1305  -0.9374   0.0000   0.0000   0.0000   0.5200
  -1.400   0.4856   0.01368   0.00508  -0.1275  0.6668  0.1344  -0.9005   0.0000   0.0000   0.0000   0.5136
  -1.300   0.4963   0.01364   0.00507  -0.1274  0.6647  0.1383  -0.8633   0.0000   0.0000   0.0000   0.5075
  -1.200   0.5071   0.01362   0.00502  -0.1273  0.6628  0.1428  -0.8626   0.0000   0.0000   0.0000   0.5016
  -1.100   0.5180   0.01358   0.00500  -0.1273  0.6609  0.1467  -0.8714   0.0000   0.0000   0.0000   0.4960
  -1.000   0.5290   0.01355   0.00495  -0.1272  0.6591  0.1513  -0.8803   0.0000   0.0000   0.0000   0.4906
  -0.900   0.5400   0.01352   0.00491  -0.1271  0.6574  0.1556  -0.8896   0.0000   0.0000   0.0000   0.4854
  -0.800   0.5512   0.01350   0.00487  -0.1271  0.6558  0.1604  -0.8990   0.0000   0.0000   0.0000   0.4803
  -0.700   0.5621   0.01348   0.00484  -0.1270  0.6541  0.1651  -0.9083   0.0000   0.0000   0.0000   0.4755
  -0.600   0.5725   0.01347   0.00486  -0.1269  0.6519  0.1697  -0.9172   0.0000   0.0000   0.0000   0.4710
  -0.500   0.5831   0.01346   0.00485  -0.1267  0.6496  0.1747  -0.9265   0.0000   0.0000   0.0000   0.4666
  -0.400   0.5936   0.01343   0.00486  -0.1266  0.6473  0.1795  -0.9358   0.0000   0.0000   0.0000   0.4624
  -0.300   0.6043   0.01342   0.00484  -0.1265  0.6451  0.1850  -0.9453   0.0000   0.0000   0.0000   0.4583
  -0.200   0.6149   0.01339   0.00484  -0.1264  0.6430  0.1898  -0.9549   0.0000   0.0000   0.0000   0.4543
  -0.100   0.6258   0.01338   0.00481  -0.1263  0.6410  0.1956  -0.9649   0.0000   0.0000   0.0000   0.4504
   0.000   0.6367   0.01335   0.00479  -0.1262  0.6391  0.2010  -0.9749   0.0000   0.0000   0.0000   0.4467
   0.100   0.6477   0.01334   0.00476  -0.1262  0.6373  0.2072  -0.9851   0.0000   0.0000   0.0000   0.4431
   0.200   0.6588   0.01332   0.00473  -0.1261  0.6356  0.2129  -0.9954   0.0000   0.0000   0.0000   0.4396
   0.300   0.6690   0.01332   0.00476  -0.1260  0.6332  0.2192  -1.0053   0.0000   0.0000   0.0000   0.4362
   0.400   0.6793   0.01331   0.00479  -0.1258  0.6307  0.2254  -1.0153   0.0000   0.0000   0.0000   0.4330
   0.500   0.6897   0.01330   0.00480  -0.1257  0.6282  0.2322  -1.0254   0.0000   0.0000   0.0000   0.4299
   0.600   0.7002   0.01328   0.00480  -0.1255  0.6258  0.2391  -1.0356   0.0000   0.0000   0.0000   0.4268
   0.700   0.7108   0.01327   0.00480  -0.1254  0.6235  0.2465  -1.0462   0.0000   0.0000   0.0000   0.4238
   0.800   0.7215   0.01325   0.00479  -0.1253  0.6214  0.2546  -1.0570   0.0000   0.0000   0.0000   0.4209
   0.900   0.7322   0.01323   0.00477  -0.1252  0.6194  0.2628  -1.0680   0.0000   0.0000   0.0000   0.4181
   1.000   0.7431   0.01321   0.00475  -0.1251  0.6175  0.2719  -1.0790   0.0000   0.0000   0.0000   0.4153
   1.200   0.7635   0.01319   0.00481  -0.1248  0.6125  0.2923  -1.1004   0.0000   0.0000   0.0000   0.4101
   1.300   0.7736   0.01318   0.00484  -0.1246  0.6098  0.3041  -1.1112   0.0000   0.0000   0.0000   0.4076
   1.400   0.7838   0.01315   0.00486  -0.1244  0.6072  0.3180  -1.1222   0.0000   0.0000   0.0000   0.4051
   1.500   0.7941   0.01311   0.00486  -0.1243  0.6047  0.3351  -1.1333   0.0000   0.0000   0.0000   0.4027
   1.600   0.8044   0.01305   0.00487  -0.1241  0.6024  0.3580  -1.1445   0.0000   0.0000   0.0000   0.4004
   1.700   0.8145   0.01295   0.00486  -0.1240  0.6002  0.3980  -1.1560   0.0000   0.0000   0.0000   0.3982
   1.800   0.8196   0.01226   0.00495  -0.1228  0.5984  0.6937  -1.1644   0.0000   0.0000   0.0000   0.3956
   2.000   0.8537   0.01189   0.00501  -0.1249  0.5924  1.0000  -1.1970   0.0000   0.0000   0.0000   0.3919
   2.100   0.8638   0.01194   0.00503  -0.1247  0.5895  1.0000  -1.2088   0.0000   0.0000   0.0000   0.3898
   2.200   0.8740   0.01198   0.00504  -0.1245  0.5868  1.0000  -1.2209   0.0000   0.0000   0.0000   0.3877
   2.300   0.8843   0.01202   0.00505  -0.1243  0.5842  1.0000  -1.2331   0.0000   0.0000   0.0000   0.3857
   2.400   0.8947   0.01207   0.00504  -0.1241  0.5818  1.0000  -1.2454   0.0000   0.0000   0.0000   0.3837
   2.500   0.9051   0.01212   0.00504  -0.1239  0.5795  1.0000  -1.2577   0.0000   0.0000   0.0000   0.3818
   2.600   0.9148   0.01217   0.00510  -0.1237  0.5764  1.0000  -1.2698   0.0000   0.0000   0.0000   0.3799
   2.700   0.9247   0.01223   0.00515  -0.1234  0.5733  1.0000  -1.2821   0.0000   0.0000   0.0000   0.3781
   2.800   0.9346   0.01228   0.00518  -0.1232  0.5703  1.0000  -1.2945   0.0000   0.0000   0.0000   0.3763
   2.900   0.9446   0.01233   0.00521  -0.1230  0.5674  1.0000  -1.3071   0.0000   0.0000   0.0000   0.3745
   3.000   0.9548   0.01238   0.00522  -0.1228  0.5647  1.0000  -1.3198   0.0000   0.0000   0.0000   0.3728
   3.100   0.9650   0.01244   0.00523  -0.1226  0.5622  1.0000  -1.3332   0.0000   0.0000   0.0000   0.3711
   3.200   0.9747   0.01250   0.00529  -0.1223  0.5592  1.0000  -1.3460   0.0000   0.0000   0.0000   0.3694
   3.300   0.9843   0.01256   0.00537  -0.1220  0.5559  1.0000  -1.3587   0.0000   0.0000   0.0000   0.3678
   3.400   0.9940   0.01262   0.00542  -0.1217  0.5527  1.0000  -1.3716   0.0000   0.0000   0.0000   0.3661
   3.500   1.0038   0.01268   0.00546  -0.1215  0.5496  1.0000  -1.3846   0.0000   0.0000   0.0000   0.3646
   3.600   1.0136   0.01274   0.00548  -0.1212  0.5467  1.0000  -1.3983   0.0000   0.0000   0.0000   0.3630
   3.700   1.0236   0.01281   0.00550  -0.1210  0.5440  1.0000  -1.4121   0.0000   0.0000   0.0000   0.3615
   3.800   1.0330   0.01288   0.00558  -0.1207  0.5407  1.0000  -1.4253   0.0000   0.0000   0.0000   0.3599
   3.900   1.0424   0.01295   0.00565  -0.1204  0.5373  1.0000  -1.4386   0.0000   0.0000   0.0000   0.3585
   4.000   1.0518   0.01301   0.00571  -0.1200  0.5339  1.0000  -1.4519   0.0000   0.0000   0.0000   0.3570
   4.100   1.0612   0.01308   0.00575  -0.1197  0.5306  1.0000  -1.4659   0.0000   0.0000   0.0000   0.3555
   4.200   1.0708   0.01316   0.00579  -0.1194  0.5276  1.0000  -1.4801   0.0000   0.0000   0.0000   0.3541
   4.300   1.0802   0.01323   0.00585  -0.1191  0.5245  1.0000  -1.4940   0.0000   0.0000   0.0000   0.3527
   4.400   1.0893   0.01331   0.00596  -0.1188  0.5209  1.0000  -1.5077   0.0000   0.0000   0.0000   0.3513
   4.500   1.0984   0.01339   0.00603  -0.1184  0.5173  1.0000  -1.5214   0.0000   0.0000   0.0000   0.3499
   4.600   1.1075   0.01347   0.00609  -0.1180  0.5138  1.0000  -1.5358   0.0000   0.0000   0.0000   0.3486
   4.700   1.1166   0.01355   0.00614  -0.1177  0.5105  1.0000  -1.5503   0.0000   0.0000   0.0000   0.3472
   4.800   1.1257   0.01364   0.00621  -0.1173  0.5073  1.0000  -1.5647   0.0000   0.0000   0.0000   0.3459
   4.900   1.1345   0.01372   0.00631  -0.1169  0.5036  1.0000  -1.5788   0.0000   0.0000   0.0000   0.3446
   5.000   1.1432   0.01381   0.00639  -0.1165  0.4998  1.0000  -1.5929   0.0000   0.0000   0.0000   0.3433
   5.100   1.1519   0.01390   0.00647  -0.1160  0.4962  1.0000  -1.6076   0.0000   0.0000   0.0000   0.3420
   5.200   1.1606   0.01400   0.00653  -0.1156  0.4928  1.0000  -1.6224   0.0000   0.0000   0.0000   0.3408
   5.300   1.1692   0.01410   0.00662  -0.1151  0.4894  1.0000  -1.6371   0.0000   0.0000   0.0000   0.3395
   5.400   1.1776   0.01419   0.00673  -0.1147  0.4855  1.0000  -1.6515   0.0000   0.0000   0.0000   0.3383
   5.500   1.1858   0.01429   0.00682  -0.1142  0.4817  1.0000  -1.6659   0.0000   0.0000   0.0000   0.3370
   5.600   1.1940   0.01439   0.00692  -0.1136  0.4780  1.0000  -1.6809   0.0000   0.0000   0.0000   0.3358
   5.700   1.2022   0.01451   0.00700  -0.1131  0.4746  1.0000  -1.6960   0.0000   0.0000   0.0000   0.3346
   5.800   1.2102   0.01461   0.00712  -0.1126  0.4708  1.0000  -1.7108   0.0000   0.0000   0.0000   0.3333
   5.900   1.2181   0.01471   0.00723  -0.1120  0.4669  1.0000  -1.7255   0.0000   0.0000   0.0000   0.3321
   6.000   1.2257   0.01483   0.00733  -0.1114  0.4631  1.0000  -1.7401   0.0000   0.0000   0.0000   0.3309
   6.100   1.2332   0.01495   0.00743  -0.1108  0.4594  1.0000  -1.7551   0.0000   0.0000   0.0000   0.3297
   6.200   1.2407   0.01507   0.00754  -0.1102  0.4559  1.0000  -1.7703   0.0000   0.0000   0.0000   0.3285
   6.300   1.2481   0.01518   0.00767  -0.1096  0.4519  1.0000  -1.7852   0.0000   0.0000   0.0000   0.3273
   6.400   1.2552   0.01530   0.00779  -0.1089  0.4480  1.0000  -1.8000   0.0000   0.0000   0.0000   0.3262
   6.500   1.2620   0.01543   0.00790  -0.1081  0.4443  1.0000  -1.8146   0.0000   0.0000   0.0000   0.3249
   6.600   1.2687   0.01557   0.00801  -0.1074  0.4408  1.0000  -1.8294   0.0000   0.0000   0.0000   0.3237
   6.700   1.2755   0.01569   0.00815  -0.1066  0.4369  1.0000  -1.8445   0.0000   0.0000   0.0000   0.3226
   6.800   1.2818   0.01582   0.00831  -0.1058  0.4330  1.0000  -1.8593   0.0000   0.0000   0.0000   0.3214
   6.900   1.2879   0.01596   0.00844  -0.1050  0.4292  1.0000  -1.8738   0.0000   0.0000   0.0000   0.3202
   7.000   1.2931   0.01611   0.00856  -0.1039  0.4257  1.0000  -1.8876   0.0000   0.0000   0.0000   0.3189
   7.100   1.2982   0.01624   0.00870  -0.1029  0.4222  1.0000  -1.9013   0.0000   0.0000   0.0000   0.3176
   7.200   1.3030   0.01637   0.00885  -0.1018  0.4184  1.0000  -1.9151   0.0000   0.0000   0.0000   0.3163
   7.300   1.3074   0.01652   0.00899  -0.1006  0.4146  1.0000  -1.9287   0.0000   0.0000   0.0000   0.3150
   7.400   1.3118   0.01668   0.00914  -0.0995  0.4111  1.0000  -1.9422   0.0000   0.0000   0.0000   0.3137
   7.500   1.3164   0.01685   0.00929  -0.0984  0.4078  1.0000  -1.9559   0.0000   0.0000   0.0000   0.3125
   7.600   1.3214   0.01700   0.00946  -0.0974  0.4041  1.0000  -1.9699   0.0000   0.0000   0.0000   0.3113
   7.700   1.3259   0.01716   0.00963  -0.0963  0.4003  1.0000  -1.9842   0.0000   0.0000   0.0000   0.3101
   7.800   1.3299   0.01735   0.00981  -0.0952  0.3967  1.0000  -1.9980   0.0000   0.0000   0.0000   0.3088
   7.900   1.3338   0.01754   0.00999  -0.0940  0.3934  1.0000  -2.0116   0.0000   0.0000   0.0000   0.3076
   8.000   1.3379   0.01773   0.01018  -0.0929  0.3893  1.0000  -2.0254   0.0000   0.0000   0.0000   0.3064
   8.100   1.3407   0.01794   0.01039  -0.0916  0.3841  1.0000  -2.0378   0.0000   0.0000   0.0000   0.3051
   8.200   1.3419   0.01820   0.01062  -0.0900  0.3787  1.0000  -2.0490   0.0000   0.0000   0.0000   0.3037
   8.300   1.3431   0.01846   0.01088  -0.0885  0.3720  1.0000  -2.0603   0.0000   0.0000   0.0000   0.3024
   8.400   1.3433   0.01876   0.01115  -0.0869  0.3652  1.0000  -2.0705   0.0000   0.0000   0.0000   0.3010
   8.500   1.3437   0.01907   0.01143  -0.0854  0.3582  1.0000  -2.0808   0.0000   0.0000   0.0000   0.2997
   8.600   1.3435   0.01940   0.01173  -0.0838  0.3509  1.0000  -2.0904   0.0000   0.0000   0.0000   0.2983
   8.700   1.3435   0.01976   0.01205  -0.0823  0.3436  1.0000  -2.1002   0.0000   0.0000   0.0000   0.2970
   8.800   1.3430   0.02014   0.01240  -0.0807  0.3360  1.0000  -2.1099   0.0000   0.0000   0.0000   0.2957
   8.900   1.3428   0.02054   0.01276  -0.0793  0.3286  1.0000  -2.1199   0.0000   0.0000   0.0000   0.2945
   9.000   1.3423   0.02096   0.01315  -0.0778  0.3211  1.0000  -2.1295   0.0000   0.0000   0.0000   0.2932
   9.100   1.3424   0.02139   0.01354  -0.0764  0.3139  1.0000  -2.1397   0.0000   0.0000   0.0000   0.2921
   9.200   1.3422   0.02183   0.01396  -0.0751  0.3069  1.0000  -2.1499   0.0000   0.0000   0.0000   0.2909
   9.300   1.3429   0.02227   0.01437  -0.0739  0.3005  1.0000  -2.1614   0.0000   0.0000   0.0000   0.2898
   9.400   1.3440   0.02270   0.01478  -0.0727  0.2945  1.0000  -2.1735   0.0000   0.0000   0.0000   0.2887
   9.500   1.3452   0.02314   0.01520  -0.0717  0.2900  1.0000  -2.1862   0.0000   0.0000   0.0000   0.2877
   9.600   1.3488   0.02348   0.01555  -0.0709  0.2859  1.0000  -2.2023   0.0000   0.0000   0.0000   0.2868
   9.700   1.3516   0.02387   0.01595  -0.0700  0.2820  1.0000  -2.2377   0.0000   0.0000   0.0000   0.2858
   9.800   1.3536   0.02430   0.01637  -0.0690  0.2783  1.0000  -2.2942   0.0000   0.0000   0.0000   0.2849
   9.900   1.3568   0.02469   0.01676  -0.0682  0.2747  1.0000  -2.3560   0.0000   0.0000   0.0000   0.2840
  10.000   1.3600   0.02508   0.01716  -0.0674  0.2709  1.0000  -2.4181   0.0000   0.0000   0.0000   0.2831
  10.100   1.3625   0.02551   0.01762  -0.0666  0.2673  1.0000  -2.4783   0.0000   0.0000   0.0000   0.2822
  10.200   1.3644   0.02598   0.01808  -0.0657  0.2639  1.0000  -2.5355   0.0000   0.0000   0.0000   0.2813
  10.300   1.3680   0.02637   0.01849  -0.0650  0.2601  1.0000  -2.6004   0.0000   0.0000   0.0000   0.2805
  10.400   1.3706   0.02682   0.01894  -0.0643  0.2564  1.0000  -2.6613   0.0000   0.0000   0.0000   0.2797
  10.500   1.3726   0.02731   0.01943  -0.0634  0.2529  1.0000  -2.7191   0.0000   0.0000   0.0000   0.2788
  10.600   1.3754   0.02776   0.01990  -0.0627  0.2495  1.0000  -2.7812   0.0000   0.0000   0.0000   0.2780
  10.700   1.3784   0.02821   0.02036  -0.0620  0.2457  1.0000  -2.8446   0.0000   0.0000   0.0000   0.2772
  10.800   1.3806   0.02872   0.02087  -0.0613  0.2422  1.0000  -2.9040   0.0000   0.0000   0.0000   0.2764
  10.900   1.3822   0.02926   0.02141  -0.0605  0.2390  1.0000  -2.9610   0.0000   0.0000   0.0000   0.2756
  11.000   1.3857   0.02970   0.02188  -0.0599  0.2353  1.0000  -3.0272   0.0000   0.0000   0.0000   0.2749
  11.100   1.3882   0.03021   0.02239  -0.0592  0.2318  1.0000  -3.0891   0.0000   0.0000   0.0000   0.2741
  11.200   1.3899   0.03077   0.02296  -0.0585  0.2285  1.0000  -3.1469   0.0000   0.0000   0.0000   0.2734
  11.300   1.3921   0.03131   0.02351  -0.0578  0.2250  1.0000  -3.2075   0.0000   0.0000   0.0000   0.2726
  11.400   1.3937   0.03190   0.02410  -0.0571  0.2200  1.0000  -3.2657   0.0000   0.0000   0.0000   0.2719
  11.500   1.3932   0.03263   0.02481  -0.0563  0.2150  1.0000  -3.3134   0.0000   0.0000   0.0000   0.2711
  11.600   1.3937   0.03332   0.02549  -0.0556  0.2084  1.0000  -3.3657   0.0000   0.0000   0.0000   0.2704
  11.700   1.3927   0.03412   0.02627  -0.0548  0.2020  1.0000  -3.4110   0.0000   0.0000   0.0000   0.2697
  11.800   1.3916   0.03495   0.02708  -0.0541  0.1946  1.0000  -3.4552   0.0000   0.0000   0.0000   0.2690
  11.900   1.3904   0.03580   0.02791  -0.0533  0.1874  1.0000  -3.4991   0.0000   0.0000   0.0000   0.2683
  12.000   1.3889   0.03670   0.02877  -0.0526  0.1804  1.0000  -3.5412   0.0000   0.0000   0.0000   0.2676
  12.100   1.3881   0.03756   0.02960  -0.0520  0.1734  1.0000  -3.5868   0.0000   0.0000   0.0000   0.2669
  12.200   1.3879   0.03838   0.03042  -0.0514  0.1679  1.0000  -3.6357   0.0000   0.0000   0.0000   0.2663
  12.300   1.3883   0.03917   0.03120  -0.0508  0.1630  1.0000  -3.6875   0.0000   0.0000   0.0000   0.2657
  12.400   1.3889   0.03996   0.03199  -0.0503  0.1582  1.0000  -3.7402   0.0000   0.0000   0.0000   0.2651
  12.500   1.3890   0.04081   0.03282  -0.0498  0.1533  1.0000  -3.7904   0.0000   0.0000   0.0000   0.2645
  12.600   1.3891   0.04166   0.03368  -0.0493  0.1483  1.0000  -3.8403   0.0000   0.0000   0.0000   0.2640
  12.700   1.3890   0.04255   0.03456  -0.0488  0.1432  1.0000  -3.8891   0.0000   0.0000   0.0000   0.2634
  12.800   1.3890   0.04344   0.03544  -0.0483  0.1380  1.0000  -3.9384   0.0000   0.0000   0.0000   0.2629
  12.900   1.3882   0.04442   0.03641  -0.0479  0.1328  1.0000  -3.9833   0.0000   0.0000   0.0000   0.2624
  13.000   1.3879   0.04536   0.03735  -0.0474  0.1273  1.0000  -4.0307   0.0000   0.0000   0.0000   0.2618
  13.100   1.3867   0.04640   0.03837  -0.0470  0.1214  1.0000  -4.0734   0.0000   0.0000   0.0000   0.2614
  13.200   1.3843   0.04758   0.03952  -0.0466  0.1144  1.0000  -4.1092   0.0000   0.0000   0.0000   0.2609
  13.300   1.3812   0.04886   0.04075  -0.0462  0.1065  1.0000  -4.1411   0.0000   0.0000   0.0000   0.2605
  13.400   1.3776   0.05020   0.04204  -0.0458  0.0980  1.0000  -4.1700   0.0000   0.0000   0.0000   0.2601
  13.500   1.3733   0.05163   0.04343  -0.0455  0.0893  1.0000  -4.1950   0.0000   0.0000   0.0000   0.2597
  13.600   1.3689   0.05311   0.04486  -0.0451  0.0805  1.0000  -4.2186   0.0000   0.0000   0.0000   0.2594
  13.700   1.3644   0.05462   0.04632  -0.0449  0.0721  1.0000  -4.2415   0.0000   0.0000   0.0000   0.2591
  13.800   1.3601   0.05615   0.04781  -0.0446  0.0646  1.0000  -4.2650   0.0000   0.0000   0.0000   0.2588
  13.900   1.3561   0.05766   0.04928  -0.0444  0.0575  1.0000  -4.2900   0.0000   0.0000   0.0000   0.2585
  14.000   1.3526   0.05916   0.05076  -0.0443  0.0514  1.0000  -4.3168   0.0000   0.0000   0.0000   0.2583
  14.100   1.3492   0.06067   0.05225  -0.0442  0.0456  1.0000  -4.3437   0.0000   0.0000   0.0000   0.2581
  14.200   1.3448   0.06232   0.05387  -0.0441  0.0392  1.0000  -4.3648   0.0000   0.0000   0.0000   0.2579
  14.300   1.3383   0.06425   0.05575  -0.0441  0.0316  1.0000  -4.3739   0.0000   0.0000   0.0000   0.2579
  14.400   1.3304   0.06639   0.05784  -0.0442  0.0230  1.0000  -4.3743   0.0000   0.0000   0.0000   0.2579
  14.500   1.3230   0.06853   0.05995  -0.0443  0.0156  1.0000  -4.3769   0.0000   0.0000   0.0000   0.2580
  14.600   1.3165   0.07060   0.06199  -0.0444  0.0091  1.0000  -4.3839   0.0000   0.0000   0.0000   0.2581
  14.700   1.3109   0.07259   0.06398  -0.0446  0.0051  1.0000  -4.3956   0.0000   0.0000   0.0000   0.2581
  14.800   1.3071   0.07438   0.06578  -0.0448  0.0035  1.0000  -4.4182   0.0000   0.0000   0.0000   0.2582
  14.900   1.3070   0.07568   0.06713  -0.0450  0.0034  1.0000  -4.4619   0.0000   0.0000   0.0000   0.2581
  15.000   1.3066   0.07704   0.06853  -0.0451  0.0032  1.0000  -4.5044   0.0000   0.0000   0.0000   0.2580


