xflr5 v6.59

 Calculated polar for: SF-14

 1 1 Reynolds number fixed          Mach number fixed         

 xtrf =   1.000 (top)        1.000 (bottom)
 Mach =   0.050     Re =     0.230 e 6     Ncrit =   5.000

  alpha     CL        CD       CDp       Cm    Top Xtr Bot Xtr   Cpmin    Chinge    XCp    
 ------- -------- --------- --------- -------- ------- ------- -------- --------- ---------
  -3.000   0.4381   0.01353   0.00558  -0.1669  0.7116  0.0411  -1.9652   0.0000   0.0000   0.0000   0.6353
  -2.900   0.4489   0.01339   0.00538  -0.1668  0.7087  0.0424  -1.9044   0.0000   0.0000   0.0000   0.6257
  -2.800   0.4598   0.01327   0.00520  -0.1668  0.7060  0.0439  -1.8407   0.0000   0.0000   0.0000   0.6165
  -2.700   0.4707   0.01319   0.00511  -0.1667  0.7034  0.0455  -1.7714   0.0000   0.0000   0.0000   0.6078
  -2.600   0.4811   0.01311   0.00501  -0.1666  0.7004  0.0475  -1.7069   0.0000   0.0000   0.0000   0.5997
  -2.500   0.4917   0.01303   0.00486  -0.1665  0.6973  0.0495  -1.6462   0.0000   0.0000   0.0000   0.5917
  -2.400   0.5023   0.01292   0.00476  -0.1664  0.6943  0.0512  -1.5817   0.0000   0.0000   0.0000   0.5843
  -2.300   0.5130   0.01285   0.00466  -0.1664  0.6914  0.0530  -1.5182   0.0000   0.0000   0.0000   0.5770
  -2.200   0.5237   0.01277   0.00453  -0.1663  0.6886  0.0552  -1.4567   0.0000   0.0000   0.0000   0.5700
  -2.100   0.5346   0.01270   0.00443  -0.1662  0.6861  0.0576  -1.3938   0.0000   0.0000   0.0000   0.5632
  -2.000   0.5452   0.01264   0.00436  -0.1662  0.6834  0.0603  -1.3303   0.0000   0.0000   0.0000   0.5568
  -1.900   0.5557   0.01259   0.00428  -0.1661  0.6804  0.0633  -1.2754   0.0000   0.0000   0.0000   0.5507
  -1.800   0.5662   0.01252   0.00422  -0.1660  0.6774  0.0660  -1.2217   0.0000   0.0000   0.0000   0.5448
  -1.700   0.5768   0.01247   0.00415  -0.1659  0.6744  0.0691  -1.1696   0.0000   0.0000   0.0000   0.5390
  -1.600   0.5875   0.01242   0.00407  -0.1658  0.6716  0.0724  -1.1175   0.0000   0.0000   0.0000   0.5335
  -1.500   0.5982   0.01238   0.00401  -0.1657  0.6690  0.0763  -1.0647   0.0000   0.0000   0.0000   0.5282
  -1.400   0.6090   0.01235   0.00395  -0.1657  0.6666  0.0804  -1.0126   0.0000   0.0000   0.0000   0.5230
  -1.300   0.6195   0.01231   0.00389  -0.1656  0.6638  0.0848  -0.9616   0.0000   0.0000   0.0000   0.5180
  -1.200   0.6299   0.01226   0.00386  -0.1655  0.6609  0.0892  -0.9473   0.0000   0.0000   0.0000   0.5133
  -1.100   0.6404   0.01224   0.00382  -0.1654  0.6580  0.0945  -0.9555   0.0000   0.0000   0.0000   0.5086
  -1.000   0.6510   0.01220   0.00379  -0.1653  0.6552  0.0999  -0.9636   0.0000   0.0000   0.0000   0.5042
  -0.900   0.6615   0.01218   0.00375  -0.1652  0.6525  0.1058  -0.9719   0.0000   0.0000   0.0000   0.4998
  -0.800   0.6722   0.01216   0.00371  -0.1651  0.6500  0.1125  -0.9801   0.0000   0.0000   0.0000   0.4956
  -0.700   0.6828   0.01214   0.00369  -0.1650  0.6476  0.1196  -0.9884   0.0000   0.0000   0.0000   0.4915
  -0.600   0.6932   0.01211   0.00368  -0.1649  0.6449  0.1271  -0.9964   0.0000   0.0000   0.0000   0.4876
  -0.500   0.7036   0.01209   0.00367  -0.1648  0.6421  0.1354  -1.0045   0.0000   0.0000   0.0000   0.4838
  -0.400   0.7140   0.01207   0.00366  -0.1647  0.6394  0.1446  -1.0127   0.0000   0.0000   0.0000   0.4801
  -0.300   0.7245   0.01206   0.00366  -0.1646  0.6367  0.1547  -1.0208   0.0000   0.0000   0.0000   0.4765
  -0.200   0.7350   0.01205   0.00365  -0.1645  0.6342  0.1656  -1.0291   0.0000   0.0000   0.0000   0.4730
  -0.100   0.7455   0.01204   0.00363  -0.1645  0.6319  0.1780  -1.0374   0.0000   0.0000   0.0000   0.4695
   0.000   0.7560   0.01203   0.00363  -0.1644  0.6295  0.1915  -1.0459   0.0000   0.0000   0.0000   0.4662
   0.100   0.7663   0.01201   0.00365  -0.1643  0.6268  0.2058  -1.0543   0.0000   0.0000   0.0000   0.4630
   0.200   0.7765   0.01199   0.00367  -0.1642  0.6241  0.2217  -1.0626   0.0000   0.0000   0.0000   0.4599
   0.300   0.7868   0.01197   0.00368  -0.1640  0.6215  0.2396  -1.0710   0.0000   0.0000   0.0000   0.4569
   0.400   0.7972   0.01196   0.00370  -0.1639  0.6190  0.2591  -1.0795   0.0000   0.0000   0.0000   0.4539
   0.500   0.8075   0.01194   0.00371  -0.1638  0.6166  0.2820  -1.0879   0.0000   0.0000   0.0000   0.4510
   0.600   0.8179   0.01191   0.00373  -0.1638  0.6144  0.3089  -1.0965   0.0000   0.0000   0.0000   0.4482
   0.700   0.8281   0.01187   0.00376  -0.1637  0.6122  0.3434  -1.1049   0.0000   0.0000   0.0000   0.4455
   0.800   0.8380   0.01177   0.00381  -0.1635  0.6097  0.3949  -1.1130   0.0000   0.0000   0.0000   0.4429
   0.900   0.8471   0.01154   0.00390  -0.1633  0.6072  0.5136  -1.1208   0.0000   0.0000   0.0000   0.4404
   1.200   0.8780   0.01084   0.00396  -0.1625  0.6000  1.0000  -1.1470   0.0000   0.0000   0.0000   0.4323
   1.300   0.8884   0.01091   0.00397  -0.1624  0.5978  1.0000  -1.1559   0.0000   0.0000   0.0000   0.4299
   1.400   0.8988   0.01097   0.00398  -0.1623  0.5958  1.0000  -1.1648   0.0000   0.0000   0.0000   0.4275
   1.500   0.9090   0.01103   0.00402  -0.1621  0.5935  1.0000  -1.1734   0.0000   0.0000   0.0000   0.4252
   1.600   0.9192   0.01108   0.00405  -0.1620  0.5911  1.0000  -1.1821   0.0000   0.0000   0.0000   0.4229
   1.700   0.9293   0.01114   0.00408  -0.1618  0.5887  1.0000  -1.1907   0.0000   0.0000   0.0000   0.4207
   1.800   0.9395   0.01120   0.00411  -0.1616  0.5863  1.0000  -1.1995   0.0000   0.0000   0.0000   0.4185
   1.900   0.9497   0.01127   0.00414  -0.1615  0.5840  1.0000  -1.2082   0.0000   0.0000   0.0000   0.4163
   2.000   0.9599   0.01133   0.00417  -0.1613  0.5819  1.0000  -1.2170   0.0000   0.0000   0.0000   0.4142
   2.100   0.9702   0.01141   0.00420  -0.1612  0.5799  1.0000  -1.2259   0.0000   0.0000   0.0000   0.4122
   2.200   0.9803   0.01147   0.00424  -0.1610  0.5777  1.0000  -1.2348   0.0000   0.0000   0.0000   0.4102
   2.300   0.9903   0.01153   0.00429  -0.1608  0.5754  1.0000  -1.2437   0.0000   0.0000   0.0000   0.4082
   2.400   1.0003   0.01159   0.00434  -0.1607  0.5731  1.0000  -1.2527   0.0000   0.0000   0.0000   0.4063
   2.500   1.0104   0.01166   0.00438  -0.1605  0.5709  1.0000  -1.2616   0.0000   0.0000   0.0000   0.4044
   2.600   1.0204   0.01173   0.00443  -0.1603  0.5687  1.0000  -1.2706   0.0000   0.0000   0.0000   0.4025
   2.700   1.0305   0.01180   0.00448  -0.1601  0.5666  1.0000  -1.2797   0.0000   0.0000   0.0000   0.4007
   2.800   1.0405   0.01187   0.00452  -0.1600  0.5647  1.0000  -1.2888   0.0000   0.0000   0.0000   0.3989
   2.900   1.0507   0.01195   0.00459  -0.1598  0.5628  1.0000  -1.2979   0.0000   0.0000   0.0000   0.3971
   3.000   1.0606   0.01202   0.00465  -0.1596  0.5606  1.0000  -1.3067   0.0000   0.0000   0.0000   0.3954
   3.100   1.0703   0.01208   0.00472  -0.1594  0.5584  1.0000  -1.3158   0.0000   0.0000   0.0000   0.3937
   3.200   1.0801   0.01215   0.00479  -0.1592  0.5561  1.0000  -1.3250   0.0000   0.0000   0.0000   0.3920
   3.300   1.0900   0.01222   0.00485  -0.1590  0.5539  1.0000  -1.3342   0.0000   0.0000   0.0000   0.3903
   3.400   1.0998   0.01230   0.00491  -0.1588  0.5519  1.0000  -1.3435   0.0000   0.0000   0.0000   0.3887
   3.500   1.1097   0.01238   0.00497  -0.1586  0.5499  1.0000  -1.3528   0.0000   0.0000   0.0000   0.3871
   3.600   1.1196   0.01246   0.00503  -0.1584  0.5481  1.0000  -1.3621   0.0000   0.0000   0.0000   0.3856
   3.700   1.1296   0.01254   0.00509  -0.1582  0.5464  1.0000  -1.3716   0.0000   0.0000   0.0000   0.3840
   3.800   1.1392   0.01261   0.00517  -0.1580  0.5443  1.0000  -1.3806   0.0000   0.0000   0.0000   0.3825
   3.900   1.1488   0.01268   0.00525  -0.1577  0.5421  1.0000  -1.3899   0.0000   0.0000   0.0000   0.3810
   4.000   1.1583   0.01276   0.00536  -0.1575  0.5400  1.0000  -1.3993   0.0000   0.0000   0.0000   0.3795
   4.100   1.1679   0.01284   0.00544  -0.1572  0.5378  1.0000  -1.4087   0.0000   0.0000   0.0000   0.3781
   4.200   1.1775   0.01292   0.00551  -0.1570  0.5358  1.0000  -1.4182   0.0000   0.0000   0.0000   0.3766
   4.300   1.1871   0.01300   0.00559  -0.1567  0.5339  1.0000  -1.4277   0.0000   0.0000   0.0000   0.3752
   4.400   1.1968   0.01309   0.00566  -0.1565  0.5321  1.0000  -1.4373   0.0000   0.0000   0.0000   0.3738
   4.500   1.2067   0.01318   0.00574  -0.1563  0.5305  1.0000  -1.4470   0.0000   0.0000   0.0000   0.3724
   4.600   1.2161   0.01326   0.00583  -0.1560  0.5285  1.0000  -1.4564   0.0000   0.0000   0.0000   0.3711
   4.700   1.2253   0.01334   0.00593  -0.1557  0.5265  1.0000  -1.4660   0.0000   0.0000   0.0000   0.3697
   4.800   1.2346   0.01342   0.00603  -0.1554  0.5243  1.0000  -1.4756   0.0000   0.0000   0.0000   0.3684
   4.900   1.2439   0.01350   0.00612  -0.1552  0.5223  1.0000  -1.4852   0.0000   0.0000   0.0000   0.3671
   5.000   1.2531   0.01359   0.00622  -0.1549  0.5203  1.0000  -1.4948   0.0000   0.0000   0.0000   0.3658
   5.100   1.2625   0.01368   0.00631  -0.1546  0.5184  1.0000  -1.5046   0.0000   0.0000   0.0000   0.3645
   5.200   1.2719   0.01377   0.00642  -0.1543  0.5167  1.0000  -1.5144   0.0000   0.0000   0.0000   0.3632
   5.300   1.2815   0.01387   0.00651  -0.1541  0.5151  1.0000  -1.5246   0.0000   0.0000   0.0000   0.3620
   5.400   1.2908   0.01397   0.00662  -0.1538  0.5133  1.0000  -1.5347   0.0000   0.0000   0.0000   0.3608
   5.500   1.2996   0.01405   0.00674  -0.1534  0.5112  1.0000  -1.5443   0.0000   0.0000   0.0000   0.3596
   5.600   1.3085   0.01414   0.00685  -0.1531  0.5092  1.0000  -1.5540   0.0000   0.0000   0.0000   0.3583
   5.700   1.3174   0.01423   0.00697  -0.1527  0.5072  1.0000  -1.5637   0.0000   0.0000   0.0000   0.3571
   5.800   1.3263   0.01432   0.00707  -0.1523  0.5052  1.0000  -1.5735   0.0000   0.0000   0.0000   0.3559
   5.900   1.3352   0.01442   0.00718  -0.1520  0.5034  1.0000  -1.5838   0.0000   0.0000   0.0000   0.3548
   6.000   1.3443   0.01452   0.00729  -0.1517  0.5016  1.0000  -1.5941   0.0000   0.0000   0.0000   0.3536
   6.100   1.3535   0.01463   0.00739  -0.1514  0.5000  1.0000  -1.6046   0.0000   0.0000   0.0000   0.3525
   6.200   1.3628   0.01473   0.00750  -0.1511  0.4984  1.0000  -1.6226   0.0000   0.0000   0.0000   0.3514
   6.300   1.3711   0.01483   0.00767  -0.1506  0.4964  1.0000  -1.6660   0.0000   0.0000   0.0000   0.3502
   6.400   1.3795   0.01492   0.00780  -0.1502  0.4944  1.0000  -1.7097   0.0000   0.0000   0.0000   0.3491
   6.500   1.3878   0.01502   0.00793  -0.1497  0.4923  1.0000  -1.7539   0.0000   0.0000   0.0000   0.3479
   6.600   1.3962   0.01512   0.00806  -0.1493  0.4904  1.0000  -1.7986   0.0000   0.0000   0.0000   0.3468
   6.700   1.4041   0.01522   0.00818  -0.1487  0.4879  1.0000  -1.8459   0.0000   0.0000   0.0000   0.3457
   6.800   1.4107   0.01533   0.00825  -0.1479  0.4840  1.0000  -1.8921   0.0000   0.0000   0.0000   0.3444
   6.900   1.4148   0.01541   0.00837  -0.1466  0.4786  1.0000  -1.9447   0.0000   0.0000   0.0000   0.3430
   7.000   1.4178   0.01551   0.00845  -0.1451  0.4724  1.0000  -2.0186   0.0000   0.0000   0.0000   0.3416
   7.100   1.4197   0.01561   0.00853  -0.1433  0.4665  1.0000  -2.0877   0.0000   0.0000   0.0000   0.3401
   7.200   1.4204   0.01571   0.00864  -0.1413  0.4598  1.0000  -2.1510   0.0000   0.0000   0.0000   0.3385
   7.400   1.4230   0.01598   0.00888  -0.1377  0.4459  1.0000  -2.2856   0.0000   0.0000   0.0000   0.3354
   7.500   1.4244   0.01615   0.00900  -0.1359  0.4391  1.0000  -2.3541   0.0000   0.0000   0.0000   0.3339
   7.600   1.4268   0.01630   0.00917  -0.1343  0.4317  1.0000  -2.4276   0.0000   0.0000   0.0000   0.3325
   7.700   1.4277   0.01650   0.00935  -0.1326  0.4248  1.0000  -2.4916   0.0000   0.0000   0.0000   0.3311
   7.800   1.4313   0.01666   0.00953  -0.1313  0.4187  1.0000  -2.5712   0.0000   0.0000   0.0000   0.3298
   7.900   1.4336   0.01686   0.00972  -0.1298  0.4124  1.0000  -2.6452   0.0000   0.0000   0.0000   0.3284
   8.000   1.4360   0.01707   0.00991  -0.1283  0.4052  1.0000  -2.7207   0.0000   0.0000   0.0000   0.3271
   8.100   1.4372   0.01731   0.01013  -0.1267  0.3973  1.0000  -2.7897   0.0000   0.0000   0.0000   0.3257
   8.200   1.4386   0.01755   0.01036  -0.1251  0.3886  1.0000  -2.8604   0.0000   0.0000   0.0000   0.3244
   8.300   1.4389   0.01785   0.01062  -0.1234  0.3799  1.0000  -2.9253   0.0000   0.0000   0.0000   0.3230
   8.400   1.4393   0.01815   0.01090  -0.1217  0.3700  1.0000  -2.9909   0.0000   0.0000   0.0000   0.3217
   8.500   1.4398   0.01848   0.01119  -0.1201  0.3597  1.0000  -3.0572   0.0000   0.0000   0.0000   0.3204
   8.600   1.4395   0.01884   0.01152  -0.1184  0.3494  1.0000  -3.1192   0.0000   0.0000   0.0000   0.3190
   8.700   1.4388   0.01924   0.01187  -0.1166  0.3383  1.0000  -3.1786   0.0000   0.0000   0.0000   0.3177
   8.800   1.4375   0.01968   0.01226  -0.1148  0.3263  1.0000  -3.2353   0.0000   0.0000   0.0000   0.3164
   8.900   1.4355   0.02017   0.01270  -0.1130  0.3136  1.0000  -3.2874   0.0000   0.0000   0.0000   0.3150
   9.000   1.4328   0.02071   0.01318  -0.1111  0.2997  1.0000  -3.3354   0.0000   0.0000   0.0000   0.3137
   9.100   1.4292   0.02133   0.01372  -0.1092  0.2846  1.0000  -3.3783   0.0000   0.0000   0.0000   0.3123
   9.200   1.4247   0.02202   0.01433  -0.1072  0.2692  1.0000  -3.4156   0.0000   0.0000   0.0000   0.3110
   9.300   1.4198   0.02276   0.01499  -0.1052  0.2532  1.0000  -3.4505   0.0000   0.0000   0.0000   0.3097
   9.400   1.4147   0.02356   0.01570  -0.1032  0.2371  1.0000  -3.4832   0.0000   0.0000   0.0000   0.3084
   9.500   1.4060   0.02459   0.01661  -0.1010  0.2158  1.0000  -3.4950   0.0000   0.0000   0.0000   0.3071
   9.600   1.3946   0.02584   0.01770  -0.0985  0.1910  1.0000  -3.4896   0.0000   0.0000   0.0000   0.3058
   9.700   1.3838   0.02713   0.01884  -0.0963  0.1670  1.0000  -3.4866   0.0000   0.0000   0.0000   0.3045
   9.800   1.3737   0.02843   0.02001  -0.0942  0.1446  1.0000  -3.4879   0.0000   0.0000   0.0000   0.3034
   9.900   1.3650   0.02969   0.02116  -0.0924  0.1249  1.0000  -3.4961   0.0000   0.0000   0.0000   0.3023
  10.000   1.3583   0.03087   0.02225  -0.0908  0.1086  1.0000  -3.5162   0.0000   0.0000   0.0000   0.3013
  10.100   1.3541   0.03190   0.02323  -0.0896  0.0969  1.0000  -3.5517   0.0000   0.0000   0.0000   0.3004
  10.200   1.3516   0.03284   0.02413  -0.0885  0.0876  1.0000  -3.5970   0.0000   0.0000   0.0000   0.2995
  10.300   1.3500   0.03373   0.02501  -0.0875  0.0799  1.0000  -3.6472   0.0000   0.0000   0.0000   0.2987
  10.400   1.3486   0.03463   0.02590  -0.0865  0.0730  1.0000  -3.7012   0.0000   0.0000   0.0000   0.2979
  10.500   1.3467   0.03558   0.02683  -0.0856  0.0655  1.0000  -3.7504   0.0000   0.0000   0.0000   0.2971
  10.600   1.3444   0.03659   0.02781  -0.0847  0.0582  1.0000  -3.7963   0.0000   0.0000   0.0000   0.2964
  10.700   1.3421   0.03761   0.02881  -0.0839  0.0509  1.0000  -3.8424   0.0000   0.0000   0.0000   0.2956
  10.800   1.3399   0.03867   0.02984  -0.0830  0.0442  1.0000  -3.8883   0.0000   0.0000   0.0000   0.2949
  10.900   1.3379   0.03972   0.03087  -0.0823  0.0381  1.0000  -3.9354   0.0000   0.0000   0.0000   0.2943
  11.000   1.3364   0.04075   0.03189  -0.0816  0.0328  1.0000  -3.9854   0.0000   0.0000   0.0000   0.2936
  11.100   1.3354   0.04175   0.03288  -0.0809  0.0286  1.0000  -4.0387   0.0000   0.0000   0.0000   0.2930
  11.200   1.3362   0.04261   0.03375  -0.0804  0.0259  1.0000  -4.1029   0.0000   0.0000   0.0000   0.2924
  11.300   1.3367   0.04350   0.03467  -0.0799  0.0237  1.0000  -4.1647   0.0000   0.0000   0.0000   0.2918
  11.400   1.3378   0.04436   0.03555  -0.0794  0.0215  1.0000  -4.2293   0.0000   0.0000   0.0000   0.2912
  11.500   1.3386   0.04526   0.03647  -0.0789  0.0195  1.0000  -4.2919   0.0000   0.0000   0.0000   0.2906
  11.600   1.3390   0.04620   0.03743  -0.0784  0.0171  1.0000  -4.3519   0.0000   0.0000   0.0000   0.2900
  11.700   1.3383   0.04728   0.03852  -0.0780  0.0139  1.0000  -4.4040   0.0000   0.0000   0.0000   0.2895
  11.800   1.3349   0.04865   0.03986  -0.0774  0.0083  1.0000  -4.4406   0.0000   0.0000   0.0000   0.2891
  11.900   1.3308   0.05012   0.04131  -0.0769  0.0046  1.0000  -4.4735   0.0000   0.0000   0.0000   0.2887
  12.000   1.3301   0.05126   0.04246  -0.0765  0.0036  1.0000  -4.5272   0.0000   0.0000   0.0000   0.2882
  12.100   1.3301   0.05234   0.04358  -0.0762  0.0031  1.0000  -4.5848   0.0000   0.0000   0.0000   0.2878
  12.200   1.3308   0.05335   0.04462  -0.0759  0.0029  1.0000  -4.6470   0.0000   0.0000   0.0000   0.2873
  12.300   1.3319   0.05433   0.04565  -0.0756  0.0028  1.0000  -4.7123   0.0000   0.0000   0.0000   0.2868
  12.400   1.3331   0.05532   0.04668  -0.0753  0.0027  1.0000  -4.7777   0.0000   0.0000   0.0000   0.2864
  12.500   1.3341   0.05634   0.04774  -0.0750  0.0026  1.0000  -4.8428   0.0000   0.0000   0.0000   0.2860
  12.600   1.3351   0.05736   0.04882  -0.0748  0.0025  1.0000  -4.9069   0.0000   0.0000   0.0000   0.2856
  12.700   1.3362   0.05838   0.04989  -0.0746  0.0024  1.0000  -4.9727   0.0000   0.0000   0.0000   0.2851
  12.800   1.3372   0.05944   0.05098  -0.0744  0.0024  1.0000  -5.0381   0.0000   0.0000   0.0000   0.2848
  12.900   1.3382   0.06050   0.05209  -0.0742  0.0023  1.0000  -5.1039   0.0000   0.0000   0.0000   0.2844
  13.000   1.3392   0.06156   0.05320  -0.0740  0.0023  1.0000  -5.1703   0.0000   0.0000   0.0000   0.2840
  13.100   1.3402   0.06264   0.05433  -0.0739  0.0022  1.0000  -5.2367   0.0000   0.0000   0.0000   0.2837
  13.200   1.3411   0.06375   0.05548  -0.0737  0.0022  1.0000  -5.3026   0.0000   0.0000   0.0000   0.2833
  13.300   1.3420   0.06486   0.05664  -0.0736  0.0021  1.0000  -5.3693   0.0000   0.0000   0.0000   0.2830
  13.400   1.3430   0.06597   0.05780  -0.0735  0.0021  1.0000  -5.4364   0.0000   0.0000   0.0000   0.2827
  13.500   1.3438   0.06711   0.05898  -0.0734  0.0021  1.0000  -5.5026   0.0000   0.0000   0.0000   0.2823
  13.600   1.3447   0.06826   0.06018  -0.0733  0.0020  1.0000  -5.5692   0.0000   0.0000   0.0000   0.2821
  13.700   1.3456   0.06941   0.06138  -0.0733  0.0020  1.0000  -5.6364   0.0000   0.0000   0.0000   0.2818
  13.800   1.3464   0.07057   0.06259  -0.0732  0.0020  1.0000  -5.7035   0.0000   0.0000   0.0000   0.2815
  13.900   1.3472   0.07176   0.06383  -0.0732  0.0020  1.0000  -5.7699   0.0000   0.0000   0.0000   0.2812
  14.000   1.3480   0.07295   0.06507  -0.0732  0.0019  1.0000  -5.8367   0.0000   0.0000   0.0000   0.2810
  14.100   1.3488   0.07415   0.06632  -0.0732  0.0019  1.0000  -5.9039   0.0000   0.0000   0.0000   0.2807
  14.200   1.3496   0.07536   0.06758  -0.0732  0.0019  1.0000  -5.9708   0.0000   0.0000   0.0000   0.2805
  14.300   1.3503   0.07659   0.06886  -0.0732  0.0019  1.0000  -6.0373   0.0000   0.0000   0.0000   0.2803
  14.400   1.3511   0.07783   0.07015  -0.0733  0.0019  1.0000  -6.1039   0.0000   0.0000   0.0000   0.2801
  14.500   1.3518   0.07907   0.07145  -0.0733  0.0018  1.0000  -6.1713   0.0000   0.0000   0.0000   0.2799
  14.600   1.3526   0.08032   0.07275  -0.0734  0.0018  1.0000  -6.2380   0.0000   0.0000   0.0000   0.2797
  14.700   1.3532   0.08160   0.07408  -0.0735  0.0018  1.0000  -6.3036   0.0000   0.0000   0.0000   0.2795
  14.800   1.3538   0.08288   0.07541  -0.0736  0.0018  1.0000  -6.3693   0.0000   0.0000   0.0000   0.2793
  14.900   1.3545   0.08416   0.07675  -0.0737  0.0018  1.0000  -6.4354   0.0000   0.0000   0.0000   0.2792
  15.000   1.3551   0.08546   0.07809  -0.0738  0.0018  1.0000  -6.5011   0.0000   0.0000   0.0000   0.2790
  15.100   1.3556   0.08678   0.07947  -0.0739  0.0018  1.0000  -6.5655   0.0000   0.0000   0.0000   0.2789
  15.200   1.3561   0.08811   0.08085  -0.0741  0.0017  1.0000  -6.6300   0.0000   0.0000   0.0000   0.2788
  15.300   1.3567   0.08943   0.08222  -0.0743  0.0017  1.0000  -6.6949   0.0000   0.0000   0.0000   0.2786
  15.400   1.3572   0.09077   0.08361  -0.0744  0.0017  1.0000  -6.7594   0.0000   0.0000   0.0000   0.2785
  15.500   1.3576   0.09213   0.08502  -0.0746  0.0017  1.0000  -6.8222   0.0000   0.0000   0.0000   0.2784
  15.600   1.3579   0.09350   0.08644  -0.0749  0.0017  1.0000  -6.8848   0.0000   0.0000   0.0000   0.2784
  15.700   1.3584   0.09486   0.08786  -0.0751  0.0017  1.0000  -6.9477   0.0000   0.0000   0.0000   0.2783
  15.800   1.3588   0.09623   0.08928  -0.0753  0.0017  1.0000  -7.0104   0.0000   0.0000   0.0000   0.2782
  15.900   1.3590   0.09763   0.09073  -0.0756  0.0017  1.0000  -7.0711   0.0000   0.0000   0.0000   0.2782
  16.000   1.3592   0.09904   0.09219  -0.0759  0.0017  1.0000  -7.1313   0.0000   0.0000   0.0000   0.2782
  16.100   1.3595   0.10043   0.09364  -0.0761  0.0017  1.0000  -7.1921   0.0000   0.0000   0.0000   0.2781
  16.200   1.3598   0.10182   0.09508  -0.0764  0.0017  1.0000  -7.2527   0.0000   0.0000   0.0000   0.2781
  16.300   1.3599   0.10325   0.09656  -0.0768  0.0017  1.0000  -7.3112   0.0000   0.0000   0.0000   0.2781
  16.400   1.3600   0.10468   0.09805  -0.0771  0.0016  1.0000  -7.3688   0.0000   0.0000   0.0000   0.2782
  16.500   1.3601   0.10610   0.09952  -0.0774  0.0016  1.0000  -7.4269   0.0000   0.0000   0.0000   0.2782
  16.600   1.3603   0.10751   0.10099  -0.0778  0.0016  1.0000  -7.4849   0.0000   0.0000   0.0000   0.2782
  16.700   1.3603   0.10895   0.10248  -0.0782  0.0016  1.0000  -7.5410   0.0000   0.0000   0.0000   0.2782
  16.800   1.3603   0.11039   0.10398  -0.0786  0.0016  1.0000  -7.5961   0.0000   0.0000   0.0000   0.2783
  16.900   1.3603   0.11182   0.10546  -0.0789  0.0016  1.0000  -7.6516   0.0000   0.0000   0.0000   0.2784
  17.000   1.3604   0.11324   0.10693  -0.0793  0.0016  1.0000  -7.7078   0.0000   0.0000   0.0000   0.2784


