xflr5 v6.59

 Calculated polar for: SF-15

 1 1 Reynolds number fixed          Mach number fixed         

 xtrf =   1.000 (top)        1.000 (bottom)
 Mach =   0.050     Re =     0.500 e 6     Ncrit =   5.000

  alpha     CL        CD       CDp       Cm    Top Xtr Bot Xtr   Cpmin    Chinge    XCp    
 ------- -------- --------- --------- -------- ------- ------- -------- --------- ---------
  -3.000   0.5317   0.00995   0.00323  -0.1844  0.6769  0.0317  -1.9960   0.0000   0.0000   0.0000   0.6007
  -2.900   0.5429   0.00988   0.00316  -0.1844  0.6737  0.0330  -1.9244   0.0000   0.0000   0.0000   0.5934
  -2.800   0.5540   0.00984   0.00310  -0.1844  0.6707  0.0343  -1.8531   0.0000   0.0000   0.0000   0.5863
  -2.700   0.5650   0.00982   0.00304  -0.1844  0.6678  0.0356  -1.7837   0.0000   0.0000   0.0000   0.5794
  -2.600   0.5762   0.00978   0.00297  -0.1843  0.6650  0.0368  -1.7153   0.0000   0.0000   0.0000   0.5728
  -2.500   0.5875   0.00973   0.00291  -0.1844  0.6620  0.0381  -1.6472   0.0000   0.0000   0.0000   0.5665
  -2.400   0.5987   0.00968   0.00286  -0.1844  0.6588  0.0395  -1.5790   0.0000   0.0000   0.0000   0.5604
  -2.300   0.6099   0.00965   0.00281  -0.1843  0.6557  0.0411  -1.5120   0.0000   0.0000   0.0000   0.5545
  -2.200   0.6209   0.00964   0.00276  -0.1843  0.6526  0.0428  -1.4462   0.0000   0.0000   0.0000   0.5489
  -2.100   0.6319   0.00962   0.00271  -0.1842  0.6496  0.0447  -1.3810   0.0000   0.0000   0.0000   0.5434
  -2.000   0.6430   0.00959   0.00268  -0.1842  0.6468  0.0470  -1.3156   0.0000   0.0000   0.0000   0.5382
  -1.900   0.6542   0.00957   0.00264  -0.1842  0.6438  0.0492  -1.2513   0.0000   0.0000   0.0000   0.5331
  -1.800   0.6653   0.00954   0.00260  -0.1842  0.6407  0.0514  -1.1938   0.0000   0.0000   0.0000   0.5281
  -1.700   0.6764   0.00952   0.00257  -0.1842  0.6376  0.0539  -1.1390   0.0000   0.0000   0.0000   0.5234
  -1.600   0.6873   0.00952   0.00254  -0.1841  0.6344  0.0564  -1.0853   0.0000   0.0000   0.0000   0.5188
  -1.500   0.6982   0.00951   0.00252  -0.1840  0.6315  0.0594  -1.0317   0.0000   0.0000   0.0000   0.5143
  -1.400   0.7093   0.00950   0.00250  -0.1840  0.6287  0.0628  -0.9785   0.0000   0.0000   0.0000   0.5100
  -1.300   0.7204   0.00948   0.00248  -0.1840  0.6257  0.0664  -0.9400   0.0000   0.0000   0.0000   0.5058
  -1.200   0.7314   0.00947   0.00246  -0.1840  0.6225  0.0702  -0.9492   0.0000   0.0000   0.0000   0.5017
  -1.100   0.7424   0.00946   0.00245  -0.1839  0.6193  0.0740  -0.9583   0.0000   0.0000   0.0000   0.4978
  -1.000   0.7532   0.00946   0.00243  -0.1838  0.6162  0.0784  -0.9675   0.0000   0.0000   0.0000   0.4940
  -0.900   0.7639   0.00947   0.00242  -0.1837  0.6133  0.0833  -0.9768   0.0000   0.0000   0.0000   0.4903
  -0.800   0.7750   0.00946   0.00241  -0.1837  0.6104  0.0884  -0.9864   0.0000   0.0000   0.0000   0.4866
  -0.700   0.7861   0.00945   0.00241  -0.1837  0.6073  0.0942  -0.9960   0.0000   0.0000   0.0000   0.4831
  -0.600   0.7970   0.00944   0.00240  -0.1836  0.6041  0.1001  -1.0057   0.0000   0.0000   0.0000   0.4797
  -0.500   0.8078   0.00944   0.00240  -0.1836  0.6009  0.1066  -1.0155   0.0000   0.0000   0.0000   0.4764
  -0.400   0.8185   0.00946   0.00241  -0.1835  0.5978  0.1139  -1.0253   0.0000   0.0000   0.0000   0.4731
  -0.300   0.8293   0.00946   0.00241  -0.1834  0.5950  0.1220  -1.0352   0.0000   0.0000   0.0000   0.4700
  -0.200   0.8403   0.00945   0.00242  -0.1834  0.5920  0.1309  -1.0456   0.0000   0.0000   0.0000   0.4669
  -0.100   0.8512   0.00944   0.00243  -0.1834  0.5888  0.1408  -1.0560   0.0000   0.0000   0.0000   0.4639
   0.100   0.8727   0.00945   0.00245  -0.1832  0.5825  0.1634  -1.0767   0.0000   0.0000   0.0000   0.4582
   0.200   0.8832   0.00947   0.00247  -0.1831  0.5795  0.1765  -1.0873   0.0000   0.0000   0.0000   0.4554
   0.300   0.8942   0.00946   0.00248  -0.1831  0.5767  0.1908  -1.0981   0.0000   0.0000   0.0000   0.4527
   0.400   0.9051   0.00945   0.00250  -0.1830  0.5735  0.2059  -1.1091   0.0000   0.0000   0.0000   0.4500
   0.500   0.9158   0.00945   0.00253  -0.1830  0.5703  0.2222  -1.1203   0.0000   0.0000   0.0000   0.4475
   0.600   0.9264   0.00946   0.00256  -0.1829  0.5671  0.2392  -1.1314   0.0000   0.0000   0.0000   0.4449
   0.700   0.9369   0.00947   0.00259  -0.1828  0.5640  0.2569  -1.1424   0.0000   0.0000   0.0000   0.4425
   0.800   0.9475   0.00948   0.00262  -0.1827  0.5612  0.2763  -1.1540   0.0000   0.0000   0.0000   0.4401
   0.900   0.9584   0.00947   0.00265  -0.1827  0.5580  0.2960  -1.1657   0.0000   0.0000   0.0000   0.4377
   1.000   0.9691   0.00947   0.00269  -0.1826  0.5548  0.3175  -1.1774   0.0000   0.0000   0.0000   0.4354
   1.100   0.9796   0.00948   0.00273  -0.1825  0.5515  0.3397  -1.1892   0.0000   0.0000   0.0000   0.4331
   1.300   1.0004   0.00950   0.00282  -0.1823  0.5454  0.3882  -1.2132   0.0000   0.0000   0.0000   0.4287
   1.400   1.0111   0.00949   0.00286  -0.1822  0.5424  0.4149  -1.2255   0.0000   0.0000   0.0000   0.4266
   1.500   1.0217   0.00949   0.00291  -0.1822  0.5391  0.4431  -1.2382   0.0000   0.0000   0.0000   0.4245
   1.600   1.0321   0.00949   0.00297  -0.1820  0.5357  0.4729  -1.2507   0.0000   0.0000   0.0000   0.4225
   1.700   1.0422   0.00950   0.00302  -0.1819  0.5325  0.5039  -1.2631   0.0000   0.0000   0.0000   0.4205
   1.800   1.0524   0.00951   0.00308  -0.1817  0.5295  0.5369  -1.2758   0.0000   0.0000   0.0000   0.4185
   1.900   1.0629   0.00949   0.00314  -0.1816  0.5264  0.5721  -1.2890   0.0000   0.0000   0.0000   0.4165
   2.000   1.0732   0.00948   0.00320  -0.1814  0.5230  0.6094  -1.3021   0.0000   0.0000   0.0000   0.4146
   2.100   1.0831   0.00948   0.00326  -0.1812  0.5196  0.6480  -1.3150   0.0000   0.0000   0.0000   0.4127
   2.200   1.0927   0.00947   0.00333  -0.1809  0.5164  0.6895  -1.3280   0.0000   0.0000   0.0000   0.4109
   2.300   1.1019   0.00941   0.00338  -0.1805  0.5134  0.7436  -1.3409   0.0000   0.0000   0.0000   0.4090
   2.500   1.1193   0.00914   0.00341  -0.1794  0.5070  1.0000  -1.3661   0.0000   0.0000   0.0000   0.4051
   2.600   1.1294   0.00921   0.00345  -0.1792  0.5034  1.0000  -1.3801   0.0000   0.0000   0.0000   0.4034
   2.700   1.1392   0.00929   0.00350  -0.1789  0.5001  1.0000  -1.3941   0.0000   0.0000   0.0000   0.4016
   2.800   1.1493   0.00936   0.00355  -0.1787  0.4970  1.0000  -1.4084   0.0000   0.0000   0.0000   0.3999
   2.900   1.1596   0.00942   0.00359  -0.1786  0.4936  1.0000  -1.4228   0.0000   0.0000   0.0000   0.3983
   3.000   1.1696   0.00949   0.00365  -0.1784  0.4899  1.0000  -1.4374   0.0000   0.0000   0.0000   0.3967
   3.100   1.1794   0.00957   0.00370  -0.1781  0.4864  1.0000  -1.4521   0.0000   0.0000   0.0000   0.3950
   3.200   1.1889   0.00966   0.00376  -0.1778  0.4832  1.0000  -1.4666   0.0000   0.0000   0.0000   0.3934
   3.300   1.1992   0.00972   0.00381  -0.1777  0.4798  1.0000  -1.4818   0.0000   0.0000   0.0000   0.3919
   3.400   1.2091   0.00979   0.00386  -0.1774  0.4761  1.0000  -1.4968   0.0000   0.0000   0.0000   0.3903
   3.500   1.2188   0.00987   0.00392  -0.1772  0.4724  1.0000  -1.5121   0.0000   0.0000   0.0000   0.3888
   3.600   1.2282   0.00996   0.00398  -0.1769  0.4690  1.0000  -1.5272   0.0000   0.0000   0.0000   0.3873
   3.700   1.2380   0.01003   0.00404  -0.1766  0.4656  1.0000  -1.5429   0.0000   0.0000   0.0000   0.3858
   3.800   1.2478   0.01011   0.00410  -0.1764  0.4619  1.0000  -1.5585   0.0000   0.0000   0.0000   0.3844
   3.900   1.2573   0.01019   0.00416  -0.1761  0.4580  1.0000  -1.5739   0.0000   0.0000   0.0000   0.3829
   4.000   1.2665   0.01029   0.00424  -0.1757  0.4544  1.0000  -1.5896   0.0000   0.0000   0.0000   0.3815
   4.100   1.2760   0.01037   0.00432  -0.1754  0.4510  1.0000  -1.6057   0.0000   0.0000   0.0000   0.3801
   4.200   1.2856   0.01044   0.00438  -0.1752  0.4472  1.0000  -1.6221   0.0000   0.0000   0.0000   0.3787
   4.300   1.2949   0.01053   0.00445  -0.1748  0.4432  1.0000  -1.6381   0.0000   0.0000   0.0000   0.3773
   4.400   1.3037   0.01064   0.00453  -0.1744  0.4395  1.0000  -1.6538   0.0000   0.0000   0.0000   0.3759
   4.500   1.3130   0.01073   0.00460  -0.1741  0.4360  1.0000  -1.6699   0.0000   0.0000   0.0000   0.3746
   4.600   1.3224   0.01081   0.00468  -0.1738  0.4321  1.0000  -1.6868   0.0000   0.0000   0.0000   0.3732
   4.700   1.3313   0.01090   0.00476  -0.1734  0.4281  1.0000  -1.7034   0.0000   0.0000   0.0000   0.3719
   4.800   1.3398   0.01102   0.00485  -0.1729  0.4243  1.0000  -1.7195   0.0000   0.0000   0.0000   0.3706
   4.900   1.3489   0.01111   0.00492  -0.1726  0.4205  1.0000  -1.7364   0.0000   0.0000   0.0000   0.3693
   5.000   1.3579   0.01120   0.00500  -0.1722  0.4165  1.0000  -1.7531   0.0000   0.0000   0.0000   0.3680
   5.100   1.3664   0.01130   0.00509  -0.1717  0.4125  1.0000  -1.7695   0.0000   0.0000   0.0000   0.3668
   5.200   1.3746   0.01142   0.00520  -0.1712  0.4088  1.0000  -1.7855   0.0000   0.0000   0.0000   0.3655
   5.300   1.3829   0.01153   0.00530  -0.1707  0.4026  1.0000  -1.8024   0.0000   0.0000   0.0000   0.3642
   5.400   1.3882   0.01175   0.00543  -0.1697  0.3899  1.0000  -1.8165   0.0000   0.0000   0.0000   0.3628
   5.500   1.3919   0.01203   0.00560  -0.1683  0.3729  1.0000  -1.8290   0.0000   0.0000   0.0000   0.3614
   5.600   1.3939   0.01236   0.00580  -0.1667  0.3542  1.0000  -1.8397   0.0000   0.0000   0.0000   0.3599
   5.700   1.3947   0.01268   0.00600  -0.1649  0.3352  1.0000  -1.8493   0.0000   0.0000   0.0000   0.3584
   5.800   1.3945   0.01302   0.00622  -0.1628  0.3170  1.0000  -1.8578   0.0000   0.0000   0.0000   0.3568
   5.900   1.3948   0.01338   0.00645  -0.1609  0.3002  1.0000  -1.8667   0.0000   0.0000   0.0000   0.3552
   6.000   1.3970   0.01368   0.00667  -0.1593  0.2861  1.0000  -1.8776   0.0000   0.0000   0.0000   0.3538
   6.100   1.4017   0.01390   0.00684  -0.1582  0.2776  1.0000  -1.8910   0.0000   0.0000   0.0000   0.3525
   6.200   1.4065   0.01412   0.00701  -0.1572  0.2696  1.0000  -1.9045   0.0000   0.0000   0.0000   0.3512
   6.300   1.4109   0.01436   0.00720  -0.1560  0.2616  1.0000  -1.9176   0.0000   0.0000   0.0000   0.3498
   6.400   1.4154   0.01459   0.00739  -0.1549  0.2531  1.0000  -1.9315   0.0000   0.0000   0.0000   0.3486
   6.500   1.4194   0.01484   0.00759  -0.1537  0.2449  1.0000  -1.9449   0.0000   0.0000   0.0000   0.3473
   6.600   1.4228   0.01511   0.00781  -0.1525  0.2366  1.0000  -1.9576   0.0000   0.0000   0.0000   0.3460
   6.700   1.4278   0.01532   0.00801  -0.1514  0.2306  1.0000  -1.9721   0.0000   0.0000   0.0000   0.3447
   6.800   1.4315   0.01560   0.00824  -0.1502  0.2225  1.0000  -1.9852   0.0000   0.0000   0.0000   0.3435
   6.900   1.4348   0.01590   0.00848  -0.1490  0.2138  1.0000  -1.9979   0.0000   0.0000   0.0000   0.3422
   7.000   1.4383   0.01619   0.00873  -0.1478  0.2049  1.0000  -2.0109   0.0000   0.0000   0.0000   0.3410
   7.100   1.4416   0.01649   0.00899  -0.1466  0.1964  1.0000  -2.0235   0.0000   0.0000   0.0000   0.3397
   7.200   1.4444   0.01682   0.00926  -0.1453  0.1882  1.0000  -2.0357   0.0000   0.0000   0.0000   0.3385
   7.300   1.4472   0.01715   0.00954  -0.1441  0.1801  1.0000  -2.0479   0.0000   0.0000   0.0000   0.3373
   7.400   1.4505   0.01747   0.00982  -0.1429  0.1719  1.0000  -2.0607   0.0000   0.0000   0.0000   0.3361
   7.500   1.4537   0.01780   0.01012  -0.1418  0.1641  1.0000  -2.0734   0.0000   0.0000   0.0000   0.3349
   7.600   1.4567   0.01815   0.01042  -0.1406  0.1566  1.0000  -2.0859   0.0000   0.0000   0.0000   0.3337
   7.700   1.4593   0.01851   0.01075  -0.1394  0.1493  1.0000  -2.0981   0.0000   0.0000   0.0000   0.3326
   7.800   1.4624   0.01886   0.01106  -0.1382  0.1423  1.0000  -2.1108   0.0000   0.0000   0.0000   0.3314
   7.900   1.4653   0.01922   0.01139  -0.1371  0.1356  1.0000  -2.1239   0.0000   0.0000   0.0000   0.3303
   8.000   1.4664   0.01970   0.01181  -0.1357  0.1251  1.0000  -2.1352   0.0000   0.0000   0.0000   0.3291
   8.100   1.4587   0.02065   0.01259  -0.1332  0.1005  1.0000  -2.1419   0.0000   0.0000   0.0000   0.3277
   8.200   1.4484   0.02180   0.01357  -0.1305  0.0708  1.0000  -2.1409   0.0000   0.0000   0.0000   0.3264
   8.300   1.4385   0.02298   0.01461  -0.1279  0.0441  1.0000  -2.1108   0.0000   0.0000   0.0000   0.3250
   8.400   1.4294   0.02418   0.01569  -0.1255  0.0174  1.0000  -2.1158   0.0000   0.0000   0.0000   0.3237
   8.500   1.4259   0.02506   0.01652  -0.1238  0.0021  1.0000  -2.1192   0.0000   0.0000   0.0000   0.3226
   8.600   1.4299   0.02545   0.01694  -0.1230  0.0013  1.0000  -2.1325   0.0000   0.0000   0.0000   0.3216
   8.700   1.4347   0.02580   0.01730  -0.1223  0.0012  1.0000  -2.1469   0.0000   0.0000   0.0000   0.3207
   8.800   1.4394   0.02615   0.01768  -0.1217  0.0011  1.0000  -2.1613   0.0000   0.0000   0.0000   0.3197
   8.900   1.4439   0.02653   0.01807  -0.1210  0.0011  1.0000  -2.1753   0.0000   0.0000   0.0000   0.3188
   9.000   1.4484   0.02691   0.01847  -0.1203  0.0011  1.0000  -2.1892   0.0000   0.0000   0.0000   0.3179
   9.100   1.4529   0.02729   0.01887  -0.1196  0.0011  1.0000  -2.2593   0.0000   0.0000   0.0000   0.3170
   9.200   1.4574   0.02768   0.01927  -0.1189  0.0010  1.0000  -2.3312   0.0000   0.0000   0.0000   0.3161
   9.300   1.4618   0.02808   0.01969  -0.1183  0.0010  1.0000  -2.4034   0.0000   0.0000   0.0000   0.3152
   9.400   1.4660   0.02850   0.02014  -0.1176  0.0010  1.0000  -2.4747   0.0000   0.0000   0.0000   0.3144
   9.500   1.4700   0.02893   0.02059  -0.1169  0.0010  1.0000  -2.5462   0.0000   0.0000   0.0000   0.3135
   9.600   1.4741   0.02937   0.02105  -0.1163  0.0010  1.0000  -2.6186   0.0000   0.0000   0.0000   0.3126
   9.700   1.4782   0.02981   0.02152  -0.1156  0.0010  1.0000  -2.6920   0.0000   0.0000   0.0000   0.3118
   9.800   1.4823   0.03027   0.02200  -0.1150  0.0010  1.0000  -2.7682   0.0000   0.0000   0.0000   0.3110
   9.900   1.4860   0.03075   0.02250  -0.1143  0.0010  1.0000  -2.8433   0.0000   0.0000   0.0000   0.3102
  10.000   1.4897   0.03124   0.02303  -0.1137  0.0010  1.0000  -2.9173   0.0000   0.0000   0.0000   0.3094
  10.100   1.4934   0.03174   0.02355  -0.1131  0.0010  1.0000  -2.9929   0.0000   0.0000   0.0000   0.3086
  10.200   1.4971   0.03224   0.02408  -0.1125  0.0009  1.0000  -3.0695   0.0000   0.0000   0.0000   0.3078
  10.300   1.5006   0.03277   0.02464  -0.1119  0.0009  1.0000  -3.1453   0.0000   0.0000   0.0000   0.3070
  10.400   1.5039   0.03331   0.02521  -0.1112  0.0009  1.0000  -3.2205   0.0000   0.0000   0.0000   0.3062
  10.500   1.5072   0.03387   0.02580  -0.1106  0.0009  1.0000  -3.2961   0.0000   0.0000   0.0000   0.3055
  10.600   1.5105   0.03443   0.02639  -0.1101  0.0009  1.0000  -3.3724   0.0000   0.0000   0.0000   0.3047
  10.700   1.5137   0.03501   0.02700  -0.1095  0.0009  1.0000  -3.4482   0.0000   0.0000   0.0000   0.3040
  10.800   1.5166   0.03563   0.02764  -0.1089  0.0009  1.0000  -3.5228   0.0000   0.0000   0.0000   0.3033
  10.900   1.5195   0.03625   0.02830  -0.1083  0.0009  1.0000  -3.5977   0.0000   0.0000   0.0000   0.3026
  11.000   1.5225   0.03688   0.02896  -0.1078  0.0009  1.0000  -3.6734   0.0000   0.0000   0.0000   0.3019
  11.100   1.5253   0.03752   0.02964  -0.1072  0.0009  1.0000  -3.7487   0.0000   0.0000   0.0000   0.3012
  11.200   1.5278   0.03821   0.03035  -0.1067  0.0009  1.0000  -3.8224   0.0000   0.0000   0.0000   0.3005
  11.300   1.5303   0.03890   0.03108  -0.1062  0.0009  1.0000  -3.8964   0.0000   0.0000   0.0000   0.2999
  11.400   1.5328   0.03960   0.03181  -0.1057  0.0009  1.0000  -3.9711   0.0000   0.0000   0.0000   0.2992
  11.500   1.5352   0.04032   0.03258  -0.1052  0.0009  1.0000  -4.0457   0.0000   0.0000   0.0000   0.2986
  11.600   1.5373   0.04108   0.03338  -0.1047  0.0009  1.0000  -4.1184   0.0000   0.0000   0.0000   0.2980
  11.700   1.5394   0.04185   0.03418  -0.1042  0.0009  1.0000  -4.1914   0.0000   0.0000   0.0000   0.2974
  11.800   1.5415   0.04263   0.03500  -0.1037  0.0009  1.0000  -4.2650   0.0000   0.0000   0.0000   0.2968
  11.900   1.5434   0.04345   0.03585  -0.1033  0.0009  1.0000  -4.3369   0.0000   0.0000   0.0000   0.2962
  12.000   1.5451   0.04429   0.03673  -0.1028  0.0009  1.0000  -4.4081   0.0000   0.0000   0.0000   0.2956
  12.100   1.5469   0.04514   0.03762  -0.1024  0.0009  1.0000  -4.4801   0.0000   0.0000   0.0000   0.2951
  12.200   1.5485   0.04601   0.03853  -0.1020  0.0009  1.0000  -4.5513   0.0000   0.0000   0.0000   0.2945
  12.300   1.5498   0.04693   0.03949  -0.1016  0.0009  1.0000  -4.6207   0.0000   0.0000   0.0000   0.2940
  12.400   1.5512   0.04786   0.04046  -0.1013  0.0009  1.0000  -4.6907   0.0000   0.0000   0.0000   0.2935
  12.500   1.5526   0.04880   0.04144  -0.1009  0.0009  1.0000  -4.7609   0.0000   0.0000   0.0000   0.2930
  12.600   1.5536   0.04979   0.04247  -0.1006  0.0009  1.0000  -4.8286   0.0000   0.0000   0.0000   0.2926
  12.700   1.5546   0.05080   0.04353  -0.1003  0.0009  1.0000  -4.8962   0.0000   0.0000   0.0000   0.2921
  12.800   1.5556   0.05182   0.04459  -0.1000  0.0009  1.0000  -4.9645   0.0000   0.0000   0.0000   0.2917
  12.900   1.5563   0.05290   0.04570  -0.0997  0.0009  1.0000  -5.0304   0.0000   0.0000   0.0000   0.2912
  13.000   1.5569   0.05400   0.04684  -0.0995  0.0009  1.0000  -5.0960   0.0000   0.0000   0.0000   0.2908
  13.100   1.5576   0.05510   0.04799  -0.0993  0.0009  1.0000  -5.1621   0.0000   0.0000   0.0000   0.2905
  13.200   1.5579   0.05627   0.04921  -0.0990  0.0009  1.0000  -5.2253   0.0000   0.0000   0.0000   0.2901
  13.300   1.5581   0.05746   0.05045  -0.0989  0.0009  1.0000  -5.2886   0.0000   0.0000   0.0000   0.2897
  13.400   1.5584   0.05866   0.05169  -0.0987  0.0009  1.0000  -5.3523   0.0000   0.0000   0.0000   0.2894
  13.500   1.5583   0.05992   0.05300  -0.0986  0.0009  1.0000  -5.4129   0.0000   0.0000   0.0000   0.2891
  13.600   1.5582   0.06121   0.05433  -0.0985  0.0009  1.0000  -5.4737   0.0000   0.0000   0.0000   0.2888
  13.700   1.5581   0.06251   0.05568  -0.0984  0.0009  1.0000  -5.5342   0.0000   0.0000   0.0000   0.2886
  13.800   1.5576   0.06388   0.05709  -0.0983  0.0009  1.0000  -5.5922   0.0000   0.0000   0.0000   0.2883
  13.900   1.5572   0.06526   0.05852  -0.0983  0.0009  1.0000  -5.6508   0.0000   0.0000   0.0000   0.2881
  14.000   1.5565   0.06669   0.05999  -0.0983  0.0009  1.0000  -5.7073   0.0000   0.0000   0.0000   0.2879
  14.100   1.5557   0.06816   0.06151  -0.0983  0.0009  1.0000  -5.7626   0.0000   0.0000   0.0000   0.2877
  14.200   1.5549   0.06963   0.06303  -0.0984  0.0009  1.0000  -5.8185   0.0000   0.0000   0.0000   0.2876
  14.300   1.5538   0.07119   0.06463  -0.0985  0.0009  1.0000  -5.8709   0.0000   0.0000   0.0000   0.2875
  14.400   1.5527   0.07275   0.06625  -0.0986  0.0009  1.0000  -5.9237   0.0000   0.0000   0.0000   0.2873
  14.500   1.5514   0.07436   0.06790  -0.0988  0.0009  1.0000  -5.9751   0.0000   0.0000   0.0000   0.2873
  14.600   1.5500   0.07602   0.06961  -0.0990  0.0009  1.0000  -6.0248   0.0000   0.0000   0.0000   0.2872
  14.700   1.5486   0.07768   0.07131  -0.0992  0.0009  1.0000  -6.0752   0.0000   0.0000   0.0000   0.2872
  14.800   1.5469   0.07942   0.07310  -0.0994  0.0009  1.0000  -6.1220   0.0000   0.0000   0.0000   0.2872
  14.900   1.5453   0.08115   0.07489  -0.0997  0.0009  1.0000  -6.1698   0.0000   0.0000   0.0000   0.2872
  15.000   1.5434   0.08295   0.07673  -0.1000  0.0009  1.0000  -6.2151   0.0000   0.0000   0.0000   0.2873


