xflr5 v6.59

 Calculated polar for: SF-11

 1 1 Reynolds number fixed          Mach number fixed         

 xtrf =   1.000 (top)        1.000 (bottom)
 Mach =   0.050     Re =     0.200 e 6     Ncrit =   5.000

  alpha     CL        CD       CDp       Cm    Top Xtr Bot Xtr   Cpmin    Chinge    XCp    
 ------- -------- --------- --------- -------- ------- ------- -------- --------- ---------
  -3.000   0.2631   0.01348   0.00511  -0.1239  0.7221  0.0909  -1.4566   0.0000   0.0000   0.0000   0.7271
  -2.900   0.2740   0.01341   0.00502  -0.1238  0.7197  0.0941  -1.4108   0.0000   0.0000   0.0000   0.7075
  -2.800   0.2850   0.01334   0.00492  -0.1238  0.7174  0.0973  -1.3657   0.0000   0.0000   0.0000   0.6893
  -2.700   0.2961   0.01327   0.00483  -0.1237  0.7153  0.1004  -1.3199   0.0000   0.0000   0.0000   0.6725
  -2.600   0.3069   0.01321   0.00476  -0.1236  0.7129  0.1040  -1.2756   0.0000   0.0000   0.0000   0.6571
  -2.500   0.3175   0.01314   0.00471  -0.1235  0.7101  0.1074  -1.2319   0.0000   0.0000   0.0000   0.6429
  -2.400   0.3282   0.01308   0.00466  -0.1234  0.7073  0.1114  -1.1881   0.0000   0.0000   0.0000   0.6296
  -2.300   0.3390   0.01303   0.00459  -0.1233  0.7045  0.1155  -1.1471   0.0000   0.0000   0.0000   0.6170
  -2.200   0.3498   0.01297   0.00454  -0.1232  0.7019  0.1197  -1.1081   0.0000   0.0000   0.0000   0.6052
  -2.100   0.3608   0.01292   0.00447  -0.1231  0.6994  0.1243  -1.0695   0.0000   0.0000   0.0000   0.5940
  -2.000   0.3717   0.01286   0.00440  -0.1231  0.6971  0.1291  -1.0307   0.0000   0.0000   0.0000   0.5834
  -1.900   0.3828   0.01282   0.00433  -0.1230  0.6949  0.1344  -0.9923   0.0000   0.0000   0.0000   0.5734
  -1.800   0.3935   0.01277   0.00429  -0.1229  0.6923  0.1398  -0.9546   0.0000   0.0000   0.0000   0.5642
  -1.700   0.4041   0.01272   0.00427  -0.1228  0.6894  0.1454  -0.9176   0.0000   0.0000   0.0000   0.5555
  -1.600   0.4148   0.01268   0.00424  -0.1227  0.6866  0.1517  -0.8806   0.0000   0.0000   0.0000   0.5472
  -1.500   0.4255   0.01263   0.00420  -0.1226  0.6838  0.1581  -0.8437   0.0000   0.0000   0.0000   0.5392
  -1.400   0.4364   0.01259   0.00416  -0.1225  0.6811  0.1651  -0.8076   0.0000   0.0000   0.0000   0.5317
  -1.300   0.4473   0.01255   0.00412  -0.1224  0.6785  0.1725  -0.7961   0.0000   0.0000   0.0000   0.5244
  -1.200   0.4582   0.01251   0.00408  -0.1223  0.6762  0.1803  -0.8051   0.0000   0.0000   0.0000   0.5175
  -1.100   0.4691   0.01248   0.00404  -0.1223  0.6739  0.1887  -0.8141   0.0000   0.0000   0.0000   0.5110
  -1.000   0.4797   0.01245   0.00404  -0.1222  0.6709  0.1975  -0.8231   0.0000   0.0000   0.0000   0.5048
  -0.900   0.4903   0.01241   0.00402  -0.1220  0.6679  0.2068  -0.8322   0.0000   0.0000   0.0000   0.4989
  -0.800   0.5009   0.01237   0.00401  -0.1219  0.6649  0.2166  -0.8414   0.0000   0.0000   0.0000   0.4932
  -0.700   0.5116   0.01234   0.00399  -0.1218  0.6621  0.2272  -0.8506   0.0000   0.0000   0.0000   0.4878
  -0.600   0.5224   0.01230   0.00397  -0.1217  0.6595  0.2383  -0.8600   0.0000   0.0000   0.0000   0.4825
  -0.500   0.5332   0.01227   0.00395  -0.1216  0.6570  0.2502  -0.8693   0.0000   0.0000   0.0000   0.4774
  -0.400   0.5441   0.01224   0.00392  -0.1216  0.6546  0.2630  -0.8790   0.0000   0.0000   0.0000   0.4726
  -0.300   0.5545   0.01220   0.00394  -0.1214  0.6515  0.2765  -0.8884   0.0000   0.0000   0.0000   0.4680
  -0.200   0.5649   0.01216   0.00395  -0.1213  0.6484  0.2911  -0.8979   0.0000   0.0000   0.0000   0.4636
  -0.100   0.5754   0.01212   0.00395  -0.1212  0.6453  0.3071  -0.9075   0.0000   0.0000   0.0000   0.4593
   0.000   0.5860   0.01208   0.00394  -0.1211  0.6424  0.3246  -0.9171   0.0000   0.0000   0.0000   0.4551
   0.100   0.5965   0.01203   0.00393  -0.1209  0.6397  0.3448  -0.9267   0.0000   0.0000   0.0000   0.4511
   0.200   0.6070   0.01197   0.00392  -0.1208  0.6371  0.3684  -0.9367   0.0000   0.0000   0.0000   0.4472
   0.300   0.6174   0.01191   0.00393  -0.1207  0.6344  0.3968  -0.9466   0.0000   0.0000   0.0000   0.4435
   0.400   0.6273   0.01182   0.00397  -0.1205  0.6312  0.4326  -0.9562   0.0000   0.0000   0.0000   0.4400
   0.500   0.6370   0.01171   0.00400  -0.1202  0.6280  0.4791  -0.9657   0.0000   0.0000   0.0000   0.4365
   0.600   0.6464   0.01156   0.00404  -0.1198  0.6250  0.5393  -0.9751   0.0000   0.0000   0.0000   0.4331
   0.700   0.6552   0.01139   0.00407  -0.1193  0.6221  0.6148  -0.9842   0.0000   0.0000   0.0000   0.4297
   0.800   0.6631   0.01120   0.00409  -0.1185  0.6194  0.6965  -0.9931   0.0000   0.0000   0.0000   0.4261
   0.900   0.6711   0.01096   0.00409  -0.1175  0.6169  0.7960  -1.0023   0.0000   0.0000   0.0000   0.4224
   1.000   0.6986   0.01075   0.00406  -0.1207  0.6131  1.0000  -1.0236   0.0000   0.0000   0.0000   0.4199
   1.100   0.7090   0.01079   0.00407  -0.1205  0.6097  1.0000  -1.0340   0.0000   0.0000   0.0000   0.4170
   1.200   0.7193   0.01084   0.00408  -0.1203  0.6065  1.0000  -1.0444   0.0000   0.0000   0.0000   0.4142
   1.300   0.7298   0.01088   0.00408  -0.1202  0.6033  1.0000  -1.0550   0.0000   0.0000   0.0000   0.4115
   1.400   0.7402   0.01093   0.00408  -0.1200  0.6004  1.0000  -1.0660   0.0000   0.0000   0.0000   0.4088
   1.500   0.7507   0.01099   0.00409  -0.1198  0.5975  1.0000  -1.0770   0.0000   0.0000   0.0000   0.4062
   1.600   0.7609   0.01103   0.00413  -0.1196  0.5940  1.0000  -1.0877   0.0000   0.0000   0.0000   0.4037
   1.700   0.7712   0.01108   0.00415  -0.1195  0.5905  1.0000  -1.0985   0.0000   0.0000   0.0000   0.4012
   1.800   0.7815   0.01113   0.00417  -0.1193  0.5872  1.0000  -1.1094   0.0000   0.0000   0.0000   0.3988
   1.900   0.7918   0.01119   0.00418  -0.1191  0.5839  1.0000  -1.1206   0.0000   0.0000   0.0000   0.3964
   2.000   0.8021   0.01124   0.00419  -0.1189  0.5809  1.0000  -1.1320   0.0000   0.0000   0.0000   0.3941
   2.100   0.8124   0.01130   0.00422  -0.1187  0.5776  1.0000  -1.1433   0.0000   0.0000   0.0000   0.3919
   2.200   0.8225   0.01135   0.00426  -0.1185  0.5740  1.0000  -1.1545   0.0000   0.0000   0.0000   0.3897
   2.300   0.8327   0.01141   0.00429  -0.1183  0.5704  1.0000  -1.1658   0.0000   0.0000   0.0000   0.3876
   2.400   0.8428   0.01147   0.00432  -0.1181  0.5670  1.0000  -1.1772   0.0000   0.0000   0.0000   0.3855
   2.500   0.8530   0.01153   0.00434  -0.1179  0.5638  1.0000  -1.1890   0.0000   0.0000   0.0000   0.3835
   2.600   0.8631   0.01160   0.00437  -0.1176  0.5606  1.0000  -1.2008   0.0000   0.0000   0.0000   0.3815
   2.700   0.8732   0.01165   0.00442  -0.1174  0.5569  1.0000  -1.2125   0.0000   0.0000   0.0000   0.3796
   2.800   0.8832   0.01172   0.00447  -0.1172  0.5532  1.0000  -1.2242   0.0000   0.0000   0.0000   0.3777
   2.900   0.8932   0.01178   0.00451  -0.1170  0.5497  1.0000  -1.2359   0.0000   0.0000   0.0000   0.3758
   3.000   0.9032   0.01185   0.00456  -0.1167  0.5463  1.0000  -1.2480   0.0000   0.0000   0.0000   0.3740
   3.100   0.9132   0.01193   0.00460  -0.1165  0.5431  1.0000  -1.2602   0.0000   0.0000   0.0000   0.3722
   3.200   0.9231   0.01199   0.00467  -0.1163  0.5394  1.0000  -1.2724   0.0000   0.0000   0.0000   0.3704
   3.300   0.9329   0.01206   0.00472  -0.1160  0.5356  1.0000  -1.2845   0.0000   0.0000   0.0000   0.3687
   3.400   0.9428   0.01213   0.00477  -0.1158  0.5320  1.0000  -1.2967   0.0000   0.0000   0.0000   0.3670
   3.500   0.9526   0.01221   0.00482  -0.1155  0.5286  1.0000  -1.3090   0.0000   0.0000   0.0000   0.3653
   3.600   0.9624   0.01229   0.00487  -0.1152  0.5253  1.0000  -1.3217   0.0000   0.0000   0.0000   0.3637
   3.700   0.9721   0.01236   0.00494  -0.1150  0.5215  1.0000  -1.3343   0.0000   0.0000   0.0000   0.3621
   3.800   0.9818   0.01243   0.00501  -0.1147  0.5177  1.0000  -1.3469   0.0000   0.0000   0.0000   0.3606
   3.900   0.9914   0.01252   0.00507  -0.1144  0.5140  1.0000  -1.3595   0.0000   0.0000   0.0000   0.3590
   4.000   1.0010   0.01260   0.00512  -0.1141  0.5107  1.0000  -1.3721   0.0000   0.0000   0.0000   0.3575
   4.100   1.0106   0.01269   0.00521  -0.1138  0.5074  1.0000  -1.3852   0.0000   0.0000   0.0000   0.3560
   4.200   1.0202   0.01277   0.00529  -0.1136  0.5036  1.0000  -1.3983   0.0000   0.0000   0.0000   0.3545
   4.300   1.0297   0.01285   0.00537  -0.1132  0.4998  1.0000  -1.4113   0.0000   0.0000   0.0000   0.3531
   4.400   1.0390   0.01294   0.00544  -0.1129  0.4961  1.0000  -1.4243   0.0000   0.0000   0.0000   0.3516
   4.500   1.0484   0.01304   0.00551  -0.1126  0.4928  1.0000  -1.4374   0.0000   0.0000   0.0000   0.3502
   4.600   1.0578   0.01313   0.00559  -0.1123  0.4894  1.0000  -1.4509   0.0000   0.0000   0.0000   0.3488
   4.700   1.0672   0.01321   0.00568  -0.1120  0.4856  1.0000  -1.4644   0.0000   0.0000   0.0000   0.3475
   4.800   1.0764   0.01331   0.00577  -0.1116  0.4819  1.0000  -1.4779   0.0000   0.0000   0.0000   0.3461
   4.900   1.0855   0.01341   0.00585  -0.1113  0.4783  1.0000  -1.4913   0.0000   0.0000   0.0000   0.3448
   5.000   1.0945   0.01352   0.00593  -0.1109  0.4750  1.0000  -1.5048   0.0000   0.0000   0.0000   0.3435
   5.100   1.1037   0.01361   0.00603  -0.1105  0.4716  1.0000  -1.5188   0.0000   0.0000   0.0000   0.3422
   5.200   1.1128   0.01370   0.00613  -0.1102  0.4679  1.0000  -1.5328   0.0000   0.0000   0.0000   0.3409
   5.300   1.1218   0.01380   0.00624  -0.1098  0.4642  1.0000  -1.5467   0.0000   0.0000   0.0000   0.3397
   5.400   1.1306   0.01391   0.00634  -0.1094  0.4607  1.0000  -1.5605   0.0000   0.0000   0.0000   0.3384
   5.600   1.1483   0.01413   0.00654  -0.1086  0.4540  1.0000  -1.5891   0.0000   0.0000   0.0000   0.3359
   5.700   1.1570   0.01423   0.00665  -0.1082  0.4504  1.0000  -1.6035   0.0000   0.0000   0.0000   0.3347
   5.800   1.1656   0.01434   0.00676  -0.1077  0.4468  1.0000  -1.6178   0.0000   0.0000   0.0000   0.3335
   5.900   1.1741   0.01446   0.00686  -0.1073  0.4435  1.0000  -1.6321   0.0000   0.0000   0.0000   0.3323
   6.000   1.1825   0.01459   0.00697  -0.1068  0.4403  1.0000  -1.6469   0.0000   0.0000   0.0000   0.3312
   6.100   1.1911   0.01469   0.00710  -0.1064  0.4368  1.0000  -1.6618   0.0000   0.0000   0.0000   0.3300
   6.200   1.1995   0.01480   0.00722  -0.1059  0.4333  1.0000  -1.6766   0.0000   0.0000   0.0000   0.3288
   6.300   1.2077   0.01492   0.00733  -0.1054  0.4298  1.0000  -1.6915   0.0000   0.0000   0.0000   0.3277
   6.400   1.2157   0.01505   0.00747  -0.1049  0.4266  1.0000  -1.7067   0.0000   0.0000   0.0000   0.3265
   6.500   1.2238   0.01518   0.00759  -0.1043  0.4235  1.0000  -1.7219   0.0000   0.0000   0.0000   0.3254
   6.600   1.2320   0.01529   0.00773  -0.1038  0.4201  1.0000  -1.7374   0.0000   0.0000   0.0000   0.3243
   6.700   1.2400   0.01541   0.00786  -0.1033  0.4166  1.0000  -1.7531   0.0000   0.0000   0.0000   0.3232
   6.800   1.2477   0.01554   0.00799  -0.1027  0.4133  1.0000  -1.7696   0.0000   0.0000   0.0000   0.3220
   6.900   1.2552   0.01568   0.00812  -0.1021  0.4102  1.0000  -1.7968   0.0000   0.0000   0.0000   0.3209
   7.000   1.2628   0.01581   0.00825  -0.1015  0.4071  1.0000  -1.8255   0.0000   0.0000   0.0000   0.3198
   7.100   1.2705   0.01593   0.00840  -0.1009  0.4038  1.0000  -1.8562   0.0000   0.0000   0.0000   0.3187
   7.200   1.2779   0.01606   0.00855  -0.1003  0.4004  1.0000  -1.8867   0.0000   0.0000   0.0000   0.3176
   7.300   1.2849   0.01620   0.00869  -0.0996  0.3972  1.0000  -1.9188   0.0000   0.0000   0.0000   0.3165
   7.400   1.2918   0.01636   0.00883  -0.0989  0.3942  1.0000  -1.9507   0.0000   0.0000   0.0000   0.3154
   7.500   1.2989   0.01649   0.00898  -0.0982  0.3912  1.0000  -1.9841   0.0000   0.0000   0.0000   0.3143
   7.600   1.3059   0.01662   0.00914  -0.0975  0.3878  1.0000  -2.0188   0.0000   0.0000   0.0000   0.3132
   7.700   1.3112   0.01676   0.00930  -0.0965  0.3835  1.0000  -2.0506   0.0000   0.0000   0.0000   0.3120
   7.800   1.3147   0.01693   0.00944  -0.0952  0.3789  1.0000  -2.0792   0.0000   0.0000   0.0000   0.3107
   7.900   1.3182   0.01708   0.00959  -0.0938  0.3734  1.0000  -2.1091   0.0000   0.0000   0.0000   0.3093
   8.000   1.3207   0.01725   0.00975  -0.0924  0.3673  1.0000  -2.1381   0.0000   0.0000   0.0000   0.3079
   8.100   1.3225   0.01745   0.00991  -0.0908  0.3615  1.0000  -2.1656   0.0000   0.0000   0.0000   0.3065
   8.200   1.3253   0.01763   0.01009  -0.0894  0.3544  1.0000  -2.1951   0.0000   0.0000   0.0000   0.3051
   8.300   1.3264   0.01787   0.01028  -0.0877  0.3479  1.0000  -2.2213   0.0000   0.0000   0.0000   0.3037
   8.400   1.3288   0.01807   0.01048  -0.0863  0.3404  1.0000  -2.2500   0.0000   0.0000   0.0000   0.3023
   8.500   1.3295   0.01833   0.01070  -0.0847  0.3336  1.0000  -2.2768   0.0000   0.0000   0.0000   0.3009
   8.600   1.3319   0.01857   0.01093  -0.0833  0.3261  1.0000  -2.3146   0.0000   0.0000   0.0000   0.2996
   8.700   1.3327   0.01886   0.01118  -0.0817  0.3194  1.0000  -2.3699   0.0000   0.0000   0.0000   0.2982
   8.800   1.3352   0.01911   0.01143  -0.0805  0.3123  1.0000  -2.4329   0.0000   0.0000   0.0000   0.2970
   8.900   1.3367   0.01940   0.01169  -0.0791  0.3060  1.0000  -2.4920   0.0000   0.0000   0.0000   0.2957
   9.000   1.3397   0.01966   0.01195  -0.0779  0.3000  1.0000  -2.5578   0.0000   0.0000   0.0000   0.2946
   9.100   1.3423   0.01995   0.01222  -0.0767  0.2944  1.0000  -2.6224   0.0000   0.0000   0.0000   0.2934
   9.200   1.3444   0.02025   0.01251  -0.0755  0.2893  1.0000  -2.6853   0.0000   0.0000   0.0000   0.2923
   9.300   1.3475   0.02054   0.01282  -0.0744  0.2831  1.0000  -2.7541   0.0000   0.0000   0.0000   0.2912
   9.400   1.3485   0.02090   0.01316  -0.0731  0.2773  1.0000  -2.8122   0.0000   0.0000   0.0000   0.2900
   9.500   1.3511   0.02122   0.01347  -0.0720  0.2704  1.0000  -2.8784   0.0000   0.0000   0.0000   0.2889
   9.600   1.3518   0.02163   0.01385  -0.0707  0.2641  1.0000  -2.9352   0.0000   0.0000   0.0000   0.2877
   9.700   1.3541   0.02198   0.01420  -0.0696  0.2569  1.0000  -3.0002   0.0000   0.0000   0.0000   0.2867
   9.800   1.3548   0.02241   0.01460  -0.0683  0.2505  1.0000  -3.0575   0.0000   0.0000   0.0000   0.2856
   9.900   1.3566   0.02281   0.01498  -0.0673  0.2435  1.0000  -3.1205   0.0000   0.0000   0.0000   0.2845
  10.000   1.3577   0.02325   0.01540  -0.0661  0.2373  1.0000  -3.1805   0.0000   0.0000   0.0000   0.2835
  10.100   1.3593   0.02368   0.01583  -0.0651  0.2308  1.0000  -3.2425   0.0000   0.0000   0.0000   0.2825
  10.200   1.3605   0.02414   0.01627  -0.0640  0.2247  1.0000  -3.3032   0.0000   0.0000   0.0000   0.2815
  10.300   1.3618   0.02461   0.01673  -0.0630  0.2182  1.0000  -3.3645   0.0000   0.0000   0.0000   0.2805
  10.400   1.3630   0.02510   0.01721  -0.0620  0.2120  1.0000  -3.4249   0.0000   0.0000   0.0000   0.2796
  10.500   1.3637   0.02563   0.01772  -0.0609  0.2056  1.0000  -3.4832   0.0000   0.0000   0.0000   0.2786
  10.600   1.3649   0.02614   0.01822  -0.0600  0.1990  1.0000  -3.5445   0.0000   0.0000   0.0000   0.2777
  10.700   1.3652   0.02672   0.01878  -0.0589  0.1927  1.0000  -3.6006   0.0000   0.0000   0.0000   0.2768
  10.800   1.3660   0.02728   0.01932  -0.0580  0.1860  1.0000  -3.6601   0.0000   0.0000   0.0000   0.2759
  10.900   1.3665   0.02788   0.01990  -0.0571  0.1794  1.0000  -3.7174   0.0000   0.0000   0.0000   0.2750
  11.000   1.3664   0.02852   0.02053  -0.0561  0.1728  1.0000  -3.7717   0.0000   0.0000   0.0000   0.2741
  11.100   1.3666   0.02916   0.02117  -0.0552  0.1658  1.0000  -3.8270   0.0000   0.0000   0.0000   0.2733
  11.200   1.3665   0.02984   0.02183  -0.0543  0.1590  1.0000  -3.8814   0.0000   0.0000   0.0000   0.2724
  11.300   1.3658   0.03057   0.02253  -0.0534  0.1521  1.0000  -3.9320   0.0000   0.0000   0.0000   0.2716
  11.400   1.3647   0.03135   0.02328  -0.0525  0.1442  1.0000  -3.9806   0.0000   0.0000   0.0000   0.2708
  11.500   1.3628   0.03219   0.02409  -0.0516  0.1356  1.0000  -4.0249   0.0000   0.0000   0.0000   0.2700
  11.600   1.3602   0.03312   0.02497  -0.0507  0.1266  1.0000  -4.0648   0.0000   0.0000   0.0000   0.2692
  11.700   1.3573   0.03409   0.02589  -0.0498  0.1173  1.0000  -4.1028   0.0000   0.0000   0.0000   0.2684
  11.800   1.3539   0.03512   0.02687  -0.0489  0.1083  1.0000  -4.1378   0.0000   0.0000   0.0000   0.2677
  11.900   1.3506   0.03618   0.02787  -0.0481  0.0993  1.0000  -4.1731   0.0000   0.0000   0.0000   0.2670
  12.000   1.3471   0.03726   0.02891  -0.0474  0.0909  1.0000  -4.2073   0.0000   0.0000   0.0000   0.2663
  12.100   1.3439   0.03835   0.02996  -0.0466  0.0831  1.0000  -4.2425   0.0000   0.0000   0.0000   0.2657
  12.200   1.3409   0.03946   0.03103  -0.0460  0.0759  1.0000  -4.2786   0.0000   0.0000   0.0000   0.2651
  12.300   1.3381   0.04056   0.03210  -0.0454  0.0696  1.0000  -4.3162   0.0000   0.0000   0.0000   0.2645
  12.400   1.3360   0.04163   0.03315  -0.0448  0.0640  1.0000  -4.3569   0.0000   0.0000   0.0000   0.2639
  12.500   1.3345   0.04266   0.03418  -0.0443  0.0592  1.0000  -4.4016   0.0000   0.0000   0.0000   0.2634
  12.600   1.3340   0.04363   0.03514  -0.0439  0.0557  1.0000  -4.4517   0.0000   0.0000   0.0000   0.2629
  12.700   1.3338   0.04457   0.03610  -0.0435  0.0526  1.0000  -4.5037   0.0000   0.0000   0.0000   0.2624
  12.800   1.3336   0.04554   0.03708  -0.0431  0.0499  1.0000  -4.5553   0.0000   0.0000   0.0000   0.2619
  12.900   1.3336   0.04650   0.03806  -0.0428  0.0472  1.0000  -4.6078   0.0000   0.0000   0.0000   0.2615
  13.000   1.3336   0.04748   0.03905  -0.0424  0.0448  1.0000  -4.6605   0.0000   0.0000   0.0000   0.2610
  13.100   1.3337   0.04846   0.04005  -0.0422  0.0425  1.0000  -4.7133   0.0000   0.0000   0.0000   0.2606
  13.200   1.3334   0.04949   0.04110  -0.0419  0.0404  1.0000  -4.7642   0.0000   0.0000   0.0000   0.2602
  13.300   1.3338   0.05048   0.04211  -0.0416  0.0384  1.0000  -4.8185   0.0000   0.0000   0.0000   0.2598
  13.400   1.3338   0.05151   0.04318  -0.0414  0.0364  1.0000  -4.8708   0.0000   0.0000   0.0000   0.2595
  13.500   1.3332   0.05263   0.04431  -0.0412  0.0343  1.0000  -4.9189   0.0000   0.0000   0.0000   0.2591
  13.600   1.3324   0.05378   0.04548  -0.0411  0.0316  1.0000  -4.9653   0.0000   0.0000   0.0000   0.2588
  13.700   1.3309   0.05503   0.04674  -0.0409  0.0289  1.0000  -5.0071   0.0000   0.0000   0.0000   0.2586
  13.800   1.3291   0.05633   0.04804  -0.0408  0.0260  1.0000  -5.0471   0.0000   0.0000   0.0000   0.2583
  13.900   1.3274   0.05764   0.04936  -0.0407  0.0230  1.0000  -5.0870   0.0000   0.0000   0.0000   0.2581
  14.000   1.3254   0.05901   0.05073  -0.0407  0.0204  1.0000  -5.1249   0.0000   0.0000   0.0000   0.2579
  14.100   1.3240   0.06033   0.05208  -0.0407  0.0179  1.0000  -5.1656   0.0000   0.0000   0.0000   0.2577
  14.200   1.3229   0.06163   0.05340  -0.0407  0.0160  1.0000  -5.2084   0.0000   0.0000   0.0000   0.2575
  14.300   1.3206   0.06309   0.05487  -0.0407  0.0134  1.0000  -5.2433   0.0000   0.0000   0.0000   0.2574
  14.400   1.3152   0.06498   0.05673  -0.0408  0.0087  1.0000  -5.2579   0.0000   0.0000   0.0000   0.2574
  14.500   1.3095   0.06693   0.05868  -0.0410  0.0054  1.0000  -5.2707   0.0000   0.0000   0.0000   0.2575
  14.600   1.3048   0.06880   0.06054  -0.0412  0.0037  1.0000  -5.2898   0.0000   0.0000   0.0000   0.2576
  14.700   1.3040   0.07018   0.06197  -0.0414  0.0035  1.0000  -5.3332   0.0000   0.0000   0.0000   0.2575
  14.800   1.3033   0.07156   0.06339  -0.0416  0.0033  1.0000  -5.3769   0.0000   0.0000   0.0000   0.2574
  14.900   1.3023   0.07299   0.06486  -0.0418  0.0031  1.0000  -5.4196   0.0000   0.0000   0.0000   0.2574
  15.000   1.3014   0.07443   0.06634  -0.0420  0.0030  1.0000  -5.4625   0.0000   0.0000   0.0000   0.2574
  15.100   1.3008   0.07584   0.06779  -0.0422  0.0028  1.0000  -5.5072   0.0000   0.0000   0.0000   0.2574
  15.200   1.3002   0.07727   0.06927  -0.0425  0.0027  1.0000  -5.5512   0.0000   0.0000   0.0000   0.2574
  15.300   1.2994   0.07872   0.07077  -0.0428  0.0027  1.0000  -5.5947   0.0000   0.0000   0.0000   0.2574
  15.400   1.2988   0.08017   0.07227  -0.0431  0.0026  1.0000  -5.6386   0.0000   0.0000   0.0000   0.2574
  15.500   1.2981   0.08165   0.07380  -0.0434  0.0025  1.0000  -5.6819   0.0000   0.0000   0.0000   0.2575
  15.600   1.2974   0.08315   0.07534  -0.0437  0.0024  1.0000  -5.7245   0.0000   0.0000   0.0000   0.2576
  15.700   1.2967   0.08465   0.07689  -0.0441  0.0024  1.0000  -5.7673   0.0000   0.0000   0.0000   0.2576
  15.800   1.2959   0.08617   0.07846  -0.0445  0.0023  1.0000  -5.8095   0.0000   0.0000   0.0000   0.2577
  15.900   1.2951   0.08771   0.08006  -0.0449  0.0023  1.0000  -5.8507   0.0000   0.0000   0.0000   0.2579
  16.000   1.2944   0.08924   0.08164  -0.0453  0.0023  1.0000  -5.8924   0.0000   0.0000   0.0000   0.2580
  16.100   1.2935   0.09081   0.08326  -0.0457  0.0022  1.0000  -5.9325   0.0000   0.0000   0.0000   0.2581
  16.200   1.2927   0.09238   0.08486  -0.0462  0.0022  1.0000  -5.9728   0.0000   0.0000   0.0000   0.2583
  16.300   1.2922   0.09390   0.08643  -0.0466  0.0022  1.0000  -6.0165   0.0000   0.0000   0.0000   0.2584
  16.400   1.2917   0.09544   0.08802  -0.0471  0.0021  1.0000  -6.0596   0.0000   0.0000   0.0000   0.2586
  16.500   1.2910   0.09700   0.08963  -0.0476  0.0021  1.0000  -6.1017   0.0000   0.0000   0.0000   0.2588
  16.600   1.2905   0.09855   0.09123  -0.0481  0.0021  1.0000  -6.1443   0.0000   0.0000   0.0000   0.2590
  16.700   1.2899   0.10011   0.09285  -0.0486  0.0021  1.0000  -6.1864   0.0000   0.0000   0.0000   0.2592
  16.800   1.2892   0.10169   0.09448  -0.0492  0.0021  1.0000  -6.2271   0.0000   0.0000   0.0000   0.2594
  16.900   1.2886   0.10326   0.09610  -0.0497  0.0021  1.0000  -6.2687   0.0000   0.0000   0.0000   0.2596
  17.000   1.2880   0.10483   0.09772  -0.0503  0.0020  1.0000  -6.3100   0.0000   0.0000   0.0000   0.2599


