xflr5 v6.59

 Calculated polar for: SF-12

 1 1 Reynolds number fixed          Mach number fixed         

 xtrf =   1.000 (top)        1.000 (bottom)
 Mach =   0.050     Re =     1.000 e 6     Ncrit =   5.000

  alpha     CL        CD       CDp       Cm    Top Xtr Bot Xtr   Cpmin    Chinge    XCp    
 ------- -------- --------- --------- -------- ------- ------- -------- --------- ---------
  -2.900   0.3305   0.00840   0.00193  -0.1286  0.6153  0.0377  -1.5649   0.0000   0.0000   0.0000   0.6440
  -2.800   0.3419   0.00836   0.00189  -0.1286  0.6138  0.0395  -1.5146   0.0000   0.0000   0.0000   0.6307
  -2.700   0.3533   0.00832   0.00186  -0.1286  0.6121  0.0417  -1.4650   0.0000   0.0000   0.0000   0.6182
  -2.600   0.3646   0.00829   0.00183  -0.1286  0.6102  0.0436  -1.4158   0.0000   0.0000   0.0000   0.6066
  -2.500   0.3759   0.00825   0.00180  -0.1286  0.6082  0.0457  -1.3673   0.0000   0.0000   0.0000   0.5956
  -2.400   0.3872   0.00821   0.00177  -0.1286  0.6061  0.0499  -1.3192   0.0000   0.0000   0.0000   0.5853
  -2.300   0.3983   0.00817   0.00175  -0.1286  0.6041  0.0548  -1.2716   0.0000   0.0000   0.0000   0.5757
  -2.200   0.4095   0.00813   0.00173  -0.1286  0.6020  0.0600  -1.2247   0.0000   0.0000   0.0000   0.5666
  -2.000   0.4316   0.00807   0.00170  -0.1285  0.5978  0.0706  -1.1406   0.0000   0.0000   0.0000   0.5498
  -1.900   0.4430   0.00804   0.00168  -0.1285  0.5962  0.0745  -1.0990   0.0000   0.0000   0.0000   0.5419
  -1.800   0.4544   0.00801   0.00166  -0.1285  0.5943  0.0776  -1.0579   0.0000   0.0000   0.0000   0.5344
  -1.700   0.4657   0.00799   0.00165  -0.1286  0.5922  0.0799  -1.0174   0.0000   0.0000   0.0000   0.5273
  -1.600   0.4770   0.00797   0.00163  -0.1285  0.5899  0.0822  -0.9773   0.0000   0.0000   0.0000   0.5206
  -1.500   0.4882   0.00796   0.00161  -0.1285  0.5875  0.0848  -0.9377   0.0000   0.0000   0.0000   0.5141
  -1.400   0.4994   0.00795   0.00160  -0.1285  0.5851  0.0873  -0.8985   0.0000   0.0000   0.0000   0.5079
  -1.300   0.5105   0.00794   0.00159  -0.1285  0.5827  0.0900  -0.8667   0.0000   0.0000   0.0000   0.5021
  -1.200   0.5215   0.00794   0.00158  -0.1284  0.5803  0.0933  -0.8757   0.0000   0.0000   0.0000   0.4965
  -1.100   0.5328   0.00793   0.00157  -0.1284  0.5783  0.0963  -0.8848   0.0000   0.0000   0.0000   0.4911
  -1.000   0.5441   0.00791   0.00156  -0.1284  0.5761  0.0992  -0.8940   0.0000   0.0000   0.0000   0.4859
  -0.900   0.5554   0.00790   0.00155  -0.1284  0.5737  0.1023  -0.9033   0.0000   0.0000   0.0000   0.4809
  -0.800   0.5666   0.00789   0.00155  -0.1284  0.5711  0.1052  -0.9128   0.0000   0.0000   0.0000   0.4761
  -0.700   0.5777   0.00789   0.00154  -0.1284  0.5684  0.1086  -0.9222   0.0000   0.0000   0.0000   0.4715
  -0.600   0.5888   0.00789   0.00154  -0.1284  0.5657  0.1123  -0.9317   0.0000   0.0000   0.0000   0.4671
  -0.500   0.5997   0.00790   0.00154  -0.1283  0.5630  0.1155  -0.9414   0.0000   0.0000   0.0000   0.4629
  -0.400   0.6108   0.00790   0.00154  -0.1283  0.5606  0.1190  -0.9512   0.0000   0.0000   0.0000   0.4588
  -0.300   0.6221   0.00789   0.00154  -0.1283  0.5582  0.1224  -0.9611   0.0000   0.0000   0.0000   0.4548
  -0.200   0.6333   0.00789   0.00154  -0.1283  0.5556  0.1258  -0.9712   0.0000   0.0000   0.0000   0.4510
  -0.100   0.6444   0.00788   0.00154  -0.1282  0.5528  0.1298  -0.9815   0.0000   0.0000   0.0000   0.4473
   0.000   0.6554   0.00789   0.00155  -0.1282  0.5498  0.1333  -0.9917   0.0000   0.0000   0.0000   0.4437
   0.100   0.6663   0.00790   0.00156  -0.1281  0.5468  0.1369  -1.0018   0.0000   0.0000   0.0000   0.4403
   0.200   0.6772   0.00792   0.00157  -0.1281  0.5440  0.1408  -1.0121   0.0000   0.0000   0.0000   0.4370
   0.300   0.6883   0.00792   0.00157  -0.1281  0.5416  0.1445  -1.0228   0.0000   0.0000   0.0000   0.4337
   0.400   0.6995   0.00792   0.00158  -0.1280  0.5389  0.1488  -1.0335   0.0000   0.0000   0.0000   0.4306
   0.500   0.7105   0.00793   0.00159  -0.1280  0.5358  0.1526  -1.0442   0.0000   0.0000   0.0000   0.4276
   0.600   0.7215   0.00794   0.00160  -0.1280  0.5328  0.1565  -1.0548   0.0000   0.0000   0.0000   0.4246
   0.700   0.7323   0.00796   0.00162  -0.1279  0.5296  0.1610  -1.0658   0.0000   0.0000   0.0000   0.4218
   0.800   0.7430   0.00799   0.00163  -0.1278  0.5265  0.1650  -1.0767   0.0000   0.0000   0.0000   0.4190
   0.900   0.7540   0.00799   0.00165  -0.1278  0.5239  0.1696  -1.0879   0.0000   0.0000   0.0000   0.4163
   1.000   0.7651   0.00800   0.00166  -0.1277  0.5209  0.1739  -1.0990   0.0000   0.0000   0.0000   0.4137
   1.100   0.7760   0.00801   0.00168  -0.1277  0.5178  0.1786  -1.1104   0.0000   0.0000   0.0000   0.4111
   1.200   0.7868   0.00804   0.00170  -0.1276  0.5144  0.1835  -1.1219   0.0000   0.0000   0.0000   0.4087
   1.300   0.7974   0.00807   0.00173  -0.1275  0.5110  0.1880  -1.1332   0.0000   0.0000   0.0000   0.4062
   1.400   0.8081   0.00809   0.00175  -0.1274  0.5079  0.1932  -1.1446   0.0000   0.0000   0.0000   0.4039
   1.500   0.8191   0.00811   0.00177  -0.1274  0.5051  0.1982  -1.1563   0.0000   0.0000   0.0000   0.4016
   1.600   0.8299   0.00812   0.00179  -0.1274  0.5019  0.2039  -1.1683   0.0000   0.0000   0.0000   0.3994
   1.700   0.8407   0.00814   0.00182  -0.1273  0.4983  0.2091  -1.1803   0.0000   0.0000   0.0000   0.3972
   1.800   0.8512   0.00818   0.00185  -0.1272  0.4947  0.2151  -1.1922   0.0000   0.0000   0.0000   0.3951
   1.900   0.8616   0.00822   0.00188  -0.1270  0.4913  0.2208  -1.2039   0.0000   0.0000   0.0000   0.3930
   2.000   0.8725   0.00823   0.00191  -0.1270  0.4884  0.2273  -1.2162   0.0000   0.0000   0.0000   0.3909
   2.100   0.8832   0.00825   0.00194  -0.1269  0.4851  0.2336  -1.2287   0.0000   0.0000   0.0000   0.3890
   2.200   0.8938   0.00828   0.00197  -0.1268  0.4814  0.2408  -1.2412   0.0000   0.0000   0.0000   0.3870
   2.300   0.9042   0.00832   0.00201  -0.1267  0.4776  0.2478  -1.2535   0.0000   0.0000   0.0000   0.3851
   2.400   0.9145   0.00836   0.00205  -0.1265  0.4741  0.2554  -1.2657   0.0000   0.0000   0.0000   0.3832
   2.500   0.9252   0.00838   0.00208  -0.1265  0.4710  0.2639  -1.2786   0.0000   0.0000   0.0000   0.3814
   2.600   0.9358   0.00840   0.00212  -0.1264  0.4675  0.2725  -1.2916   0.0000   0.0000   0.0000   0.3797
   2.800   0.9563   0.00847   0.00220  -0.1261  0.4597  0.2927  -1.3172   0.0000   0.0000   0.0000   0.3762
   2.900   0.9666   0.00851   0.00225  -0.1260  0.4563  0.3047  -1.3300   0.0000   0.0000   0.0000   0.3745
   3.000   0.9771   0.00852   0.00229  -0.1259  0.4530  0.3189  -1.3435   0.0000   0.0000   0.0000   0.3729
   3.100   0.9874   0.00854   0.00234  -0.1257  0.4492  0.3364  -1.3569   0.0000   0.0000   0.0000   0.3713
   3.200   0.9974   0.00855   0.00240  -0.1256  0.4452  0.3620  -1.3701   0.0000   0.0000   0.0000   0.3697
   3.300   1.0069   0.00848   0.00247  -0.1254  0.4414  0.4410  -1.3829   0.0000   0.0000   0.0000   0.3682
   3.500   1.0295   0.00755   0.00271  -0.1257  0.4343  1.0000  -1.4121   0.0000   0.0000   0.0000   0.3655
   3.600   1.0395   0.00762   0.00276  -0.1255  0.4303  1.0000  -1.4260   0.0000   0.0000   0.0000   0.3640
   3.700   1.0492   0.00771   0.00281  -0.1253  0.4263  1.0000  -1.4396   0.0000   0.0000   0.0000   0.3625
   3.800   1.0592   0.00777   0.00286  -0.1251  0.4228  1.0000  -1.4534   0.0000   0.0000   0.0000   0.3611
   3.900   1.0693   0.00783   0.00290  -0.1249  0.4190  1.0000  -1.4675   0.0000   0.0000   0.0000   0.3597
   4.000   1.0791   0.00790   0.00296  -0.1247  0.4150  1.0000  -1.4819   0.0000   0.0000   0.0000   0.3583
   4.100   1.0887   0.00799   0.00301  -0.1244  0.4110  1.0000  -1.4961   0.0000   0.0000   0.0000   0.3569
   4.200   1.0983   0.00807   0.00308  -0.1241  0.4074  1.0000  -1.5104   0.0000   0.0000   0.0000   0.3555
   4.300   1.1083   0.00813   0.00313  -0.1239  0.4037  1.0000  -1.5249   0.0000   0.0000   0.0000   0.3541
   4.400   1.1180   0.00821   0.00319  -0.1237  0.3996  1.0000  -1.5394   0.0000   0.0000   0.0000   0.3528
   4.500   1.1273   0.00829   0.00325  -0.1233  0.3956  1.0000  -1.5541   0.0000   0.0000   0.0000   0.3515
   4.600   1.1367   0.00838   0.00331  -0.1230  0.3920  1.0000  -1.5688   0.0000   0.0000   0.0000   0.3502
   4.700   1.1465   0.00845   0.00337  -0.1228  0.3884  1.0000  -1.5839   0.0000   0.0000   0.0000   0.3489
   4.800   1.1559   0.00853   0.00343  -0.1225  0.3843  1.0000  -1.5988   0.0000   0.0000   0.0000   0.3476
   4.900   1.1645   0.00864   0.00351  -0.1221  0.3788  1.0000  -1.6131   0.0000   0.0000   0.0000   0.3463
   5.000   1.1720   0.00881   0.00361  -0.1214  0.3673  1.0000  -1.6268   0.0000   0.0000   0.0000   0.3450
   5.100   1.1776   0.00905   0.00376  -0.1205  0.3512  1.0000  -1.6389   0.0000   0.0000   0.0000   0.3435
   5.300   1.1858   0.00964   0.00411  -0.1181  0.3129  1.0000  -1.6604   0.0000   0.0000   0.0000   0.3405
   5.400   1.1890   0.00995   0.00430  -0.1167  0.2935  1.0000  -1.6702   0.0000   0.0000   0.0000   0.3389
   5.500   1.1909   0.01030   0.00452  -0.1151  0.2728  1.0000  -1.6790   0.0000   0.0000   0.0000   0.3373
   5.600   1.1963   0.01050   0.00466  -0.1141  0.2635  1.0000  -1.6915   0.0000   0.0000   0.0000   0.3359
   5.700   1.2022   0.01066   0.00478  -0.1132  0.2551  1.0000  -1.7045   0.0000   0.0000   0.0000   0.3345
   5.800   1.2076   0.01084   0.00491  -0.1121  0.2472  1.0000  -1.7170   0.0000   0.0000   0.0000   0.3331
   5.900   1.2114   0.01103   0.00505  -0.1108  0.2390  1.0000  -1.7281   0.0000   0.0000   0.0000   0.3316
   6.000   1.2143   0.01119   0.00517  -0.1093  0.2313  1.0000  -1.7384   0.0000   0.0000   0.0000   0.3300
   6.100   1.2161   0.01137   0.00531  -0.1076  0.2238  1.0000  -1.7476   0.0000   0.0000   0.0000   0.3283
   6.200   1.2179   0.01158   0.00546  -0.1058  0.2156  1.0000  -1.7573   0.0000   0.0000   0.0000   0.3266
   6.300   1.2204   0.01178   0.00562  -0.1043  0.2068  1.0000  -1.7676   0.0000   0.0000   0.0000   0.3250
   6.400   1.2224   0.01201   0.00580  -0.1027  0.1977  1.0000  -1.7775   0.0000   0.0000   0.0000   0.3234
   6.500   1.2241   0.01227   0.00600  -0.1011  0.1880  1.0000  -1.7870   0.0000   0.0000   0.0000   0.3218
   6.600   1.2245   0.01254   0.00622  -0.0992  0.1783  1.0000  -1.7953   0.0000   0.0000   0.0000   0.3202
   6.700   1.2246   0.01284   0.00646  -0.0974  0.1682  1.0000  -1.8033   0.0000   0.0000   0.0000   0.3185
   6.800   1.2247   0.01315   0.00671  -0.0956  0.1576  1.0000  -1.8114   0.0000   0.0000   0.0000   0.3169
   6.900   1.2245   0.01348   0.00698  -0.0937  0.1473  1.0000  -1.8194   0.0000   0.0000   0.0000   0.3152
   7.000   1.2237   0.01384   0.00728  -0.0919  0.1365  1.0000  -1.8272   0.0000   0.0000   0.0000   0.3136
   7.100   1.2161   0.01445   0.00778  -0.0890  0.1155  1.0000  -1.8383   0.0000   0.0000   0.0000   0.3116
   7.200   1.2057   0.01520   0.00839  -0.0858  0.0906  1.0000  -1.8370   0.0000   0.0000   0.0000   0.3094
   7.300   1.1955   0.01600   0.00907  -0.0827  0.0656  1.0000  -1.8040   0.0000   0.0000   0.0000   0.3073
   7.400   1.1858   0.01685   0.00981  -0.0799  0.0398  1.0000  -1.8041   0.0000   0.0000   0.0000   0.3053
   7.500   1.1773   0.01770   0.01056  -0.0773  0.0147  1.0000  -1.8052   0.0000   0.0000   0.0000   0.3034
   7.600   1.1762   0.01824   0.01108  -0.0757  0.0010  1.0000  -1.8118   0.0000   0.0000   0.0000   0.3020
   7.700   1.1813   0.01848   0.01133  -0.0750  0.0010  1.0000  -1.8248   0.0000   0.0000   0.0000   0.3009
   7.800   1.1864   0.01873   0.01158  -0.0743  0.0009  1.0000  -1.8382   0.0000   0.0000   0.0000   0.2999
   7.900   1.1917   0.01898   0.01183  -0.0736  0.0009  1.0000  -1.8520   0.0000   0.0000   0.0000   0.2989
   8.000   1.1969   0.01923   0.01209  -0.0729  0.0008  1.0000  -1.8658   0.0000   0.0000   0.0000   0.2979
   8.100   1.2019   0.01950   0.01236  -0.0722  0.0008  1.0000  -1.8793   0.0000   0.0000   0.0000   0.2969
   8.200   1.2069   0.01977   0.01264  -0.0715  0.0007  1.0000  -1.8928   0.0000   0.0000   0.0000   0.2959
   8.300   1.2119   0.02005   0.01292  -0.0709  0.0007  1.0000  -1.9065   0.0000   0.0000   0.0000   0.2949
   8.400   1.2171   0.02032   0.01320  -0.0702  0.0006  1.0000  -1.9209   0.0000   0.0000   0.0000   0.2940
   8.500   1.2222   0.02060   0.01349  -0.0696  0.0006  1.0000  -1.9353   0.0000   0.0000   0.0000   0.2930
   8.600   1.2270   0.02090   0.01380  -0.0689  0.0006  1.0000  -1.9493   0.0000   0.0000   0.0000   0.2921
   8.700   1.2317   0.02121   0.01411  -0.0682  0.0006  1.0000  -1.9632   0.0000   0.0000   0.0000   0.2912
   8.800   1.2366   0.02152   0.01443  -0.0676  0.0006  1.0000  -1.9773   0.0000   0.0000   0.0000   0.2903
   8.900   1.2416   0.02182   0.01474  -0.0670  0.0006  1.0000  -1.9921   0.0000   0.0000   0.0000   0.2894
   9.000   1.2465   0.02213   0.01506  -0.0664  0.0006  1.0000  -2.0071   0.0000   0.0000   0.0000   0.2885
   9.100   1.2511   0.02246   0.01541  -0.0657  0.0006  1.0000  -2.0216   0.0000   0.0000   0.0000   0.2877
   9.200   1.2557   0.02280   0.01576  -0.0651  0.0005  1.0000  -2.0360   0.0000   0.0000   0.0000   0.2868
   9.300   1.2603   0.02314   0.01610  -0.0645  0.0005  1.0000  -2.0505   0.0000   0.0000   0.0000   0.2859
   9.400   1.2650   0.02348   0.01645  -0.0639  0.0005  1.0000  -2.0658   0.0000   0.0000   0.0000   0.2851
   9.500   1.2698   0.02382   0.01680  -0.0633  0.0005  1.0000  -2.0813   0.0000   0.0000   0.0000   0.2843
   9.600   1.2742   0.02418   0.01717  -0.0627  0.0005  1.0000  -2.0963   0.0000   0.0000   0.0000   0.2835
   9.700   1.2785   0.02456   0.01756  -0.0621  0.0005  1.0000  -2.1112   0.0000   0.0000   0.0000   0.2827
   9.800   1.2829   0.02493   0.01794  -0.0615  0.0005  1.0000  -2.1269   0.0000   0.0000   0.0000   0.2819
   9.900   1.2873   0.02530   0.01833  -0.0610  0.0005  1.0000  -2.1428   0.0000   0.0000   0.0000   0.2811
  10.000   1.2918   0.02568   0.01872  -0.0604  0.0005  1.0000  -2.1840   0.0000   0.0000   0.0000   0.2803
  10.100   1.2960   0.02608   0.01914  -0.0598  0.0005  1.0000  -2.2505   0.0000   0.0000   0.0000   0.2795
  10.200   1.3000   0.02650   0.01957  -0.0593  0.0005  1.0000  -2.3168   0.0000   0.0000   0.0000   0.2788
  10.300   1.3041   0.02692   0.02000  -0.0587  0.0005  1.0000  -2.3841   0.0000   0.0000   0.0000   0.2780
  10.400   1.3083   0.02733   0.02043  -0.0582  0.0005  1.0000  -2.4525   0.0000   0.0000   0.0000   0.2773
  10.500   1.3125   0.02775   0.02085  -0.0576  0.0005  1.0000  -2.5215   0.0000   0.0000   0.0000   0.2766
  10.600   1.3164   0.02819   0.02132  -0.0571  0.0005  1.0000  -2.5885   0.0000   0.0000   0.0000   0.2758
  10.700   1.3201   0.02866   0.02180  -0.0566  0.0005  1.0000  -2.6558   0.0000   0.0000   0.0000   0.2751
  10.800   1.3238   0.02912   0.02228  -0.0560  0.0005  1.0000  -2.7240   0.0000   0.0000   0.0000   0.2744
  10.900   1.3276   0.02958   0.02275  -0.0555  0.0005  1.0000  -2.7932   0.0000   0.0000   0.0000   0.2737
  11.000   1.3315   0.03004   0.02322  -0.0550  0.0005  1.0000  -2.8634   0.0000   0.0000   0.0000   0.2730
  11.100   1.3351   0.03052   0.02373  -0.0545  0.0005  1.0000  -2.9324   0.0000   0.0000   0.0000   0.2723
  11.200   1.3384   0.03104   0.02426  -0.0540  0.0005  1.0000  -3.0005   0.0000   0.0000   0.0000   0.2717
  11.300   1.3418   0.03155   0.02479  -0.0535  0.0005  1.0000  -3.0696   0.0000   0.0000   0.0000   0.2710
  11.400   1.3454   0.03206   0.02532  -0.0530  0.0005  1.0000  -3.1398   0.0000   0.0000   0.0000   0.2703
  11.500   1.3489   0.03257   0.02584  -0.0525  0.0005  1.0000  -3.2106   0.0000   0.0000   0.0000   0.2697
  11.600   1.3522   0.03311   0.02640  -0.0521  0.0005  1.0000  -3.2804   0.0000   0.0000   0.0000   0.2691
  11.700   1.3552   0.03369   0.02700  -0.0516  0.0005  1.0000  -3.3490   0.0000   0.0000   0.0000   0.2684
  11.800   1.3582   0.03426   0.02759  -0.0511  0.0005  1.0000  -3.4184   0.0000   0.0000   0.0000   0.2678
  11.900   1.3614   0.03482   0.02817  -0.0507  0.0005  1.0000  -3.4892   0.0000   0.0000   0.0000   0.2672
  12.000   1.3647   0.03538   0.02875  -0.0502  0.0005  1.0000  -3.5607   0.0000   0.0000   0.0000   0.2666
  12.100   1.3676   0.03598   0.02937  -0.0498  0.0005  1.0000  -3.6310   0.0000   0.0000   0.0000   0.2660
  12.200   1.3701   0.03661   0.03003  -0.0494  0.0005  1.0000  -3.6994   0.0000   0.0000   0.0000   0.2654
  12.300   1.3728   0.03724   0.03068  -0.0489  0.0005  1.0000  -3.7690   0.0000   0.0000   0.0000   0.2648
  12.400   1.3756   0.03786   0.03132  -0.0485  0.0005  1.0000  -3.8397   0.0000   0.0000   0.0000   0.2643
  12.500   1.3785   0.03848   0.03196  -0.0481  0.0005  1.0000  -3.9110   0.0000   0.0000   0.0000   0.2637
  12.600   1.3809   0.03915   0.03265  -0.0477  0.0005  1.0000  -3.9804   0.0000   0.0000   0.0000   0.2631
  12.700   1.3831   0.03985   0.03337  -0.0473  0.0005  1.0000  -4.0487   0.0000   0.0000   0.0000   0.2626
  12.800   1.3855   0.04055   0.03409  -0.0470  0.0005  1.0000  -4.1180   0.0000   0.0000   0.0000   0.2621
  12.900   1.3879   0.04123   0.03479  -0.0466  0.0005  1.0000  -4.1884   0.0000   0.0000   0.0000   0.2615
  13.000   1.3904   0.04192   0.03551  -0.0462  0.0005  1.0000  -4.2594   0.0000   0.0000   0.0000   0.2610
  13.100   1.3923   0.04268   0.03629  -0.0459  0.0005  1.0000  -4.3273   0.0000   0.0000   0.0000   0.2605
  13.200   1.3941   0.04345   0.03708  -0.0455  0.0005  1.0000  -4.3946   0.0000   0.0000   0.0000   0.2600
  13.300   1.3961   0.04421   0.03786  -0.0452  0.0005  1.0000  -4.4637   0.0000   0.0000   0.0000   0.2595
  13.400   1.3982   0.04496   0.03863  -0.0449  0.0005  1.0000  -4.5336   0.0000   0.0000   0.0000   0.2590
  13.500   1.4001   0.04573   0.03944  -0.0446  0.0005  1.0000  -4.6023   0.0000   0.0000   0.0000   0.2586
  13.600   1.4014   0.04658   0.04031  -0.0443  0.0005  1.0000  -4.6678   0.0000   0.0000   0.0000   0.2581
  13.700   1.4029   0.04742   0.04118  -0.0440  0.0005  1.0000  -4.7345   0.0000   0.0000   0.0000   0.2577
  13.800   1.4046   0.04825   0.04203  -0.0437  0.0005  1.0000  -4.8027   0.0000   0.0000   0.0000   0.2572
  13.900   1.4063   0.04907   0.04288  -0.0435  0.0005  1.0000  -4.8714   0.0000   0.0000   0.0000   0.2568
  14.000   1.4074   0.04998   0.04381  -0.0432  0.0005  1.0000  -4.9363   0.0000   0.0000   0.0000   0.2564
  14.100   1.4083   0.05091   0.04477  -0.0430  0.0005  1.0000  -5.0007   0.0000   0.0000   0.0000   0.2560
  14.200   1.4095   0.05182   0.04571  -0.0428  0.0005  1.0000  -5.0667   0.0000   0.0000   0.0000   0.2556
  14.300   1.4108   0.05271   0.04663  -0.0425  0.0005  1.0000  -5.1337   0.0000   0.0000   0.0000   0.2552
  14.400   1.4118   0.05367   0.04762  -0.0423  0.0005  1.0000  -5.1982   0.0000   0.0000   0.0000   0.2548
  14.500   1.4123   0.05469   0.04866  -0.0422  0.0005  1.0000  -5.2603   0.0000   0.0000   0.0000   0.2544
  14.600   1.4131   0.05567   0.04967  -0.0420  0.0005  1.0000  -5.3239   0.0000   0.0000   0.0000   0.2541
  14.700   1.4140   0.05665   0.05067  -0.0418  0.0005  1.0000  -5.3887   0.0000   0.0000   0.0000   0.2537
  14.800   1.4145   0.05769   0.05174  -0.0417  0.0005  1.0000  -5.4512   0.0000   0.0000   0.0000   0.2534
  14.900   1.4147   0.05879   0.05287  -0.0416  0.0005  1.0000  -5.5109   0.0000   0.0000   0.0000   0.2531
  15.000   1.4151   0.05986   0.05397  -0.0415  0.0005  1.0000  -5.5726   0.0000   0.0000   0.0000   0.2528


