xflr5 v6.59

 Calculated polar for: SF-14

 1 1 Reynolds number fixed          Mach number fixed         

 xtrf =   1.000 (top)        1.000 (bottom)
 Mach =   0.050     Re =     0.300 e 6     Ncrit =   5.000

  alpha     CL        CD       CDp       Cm    Top Xtr Bot Xtr   Cpmin    Chinge    XCp    
 ------- -------- --------- --------- -------- ------- ------- -------- --------- ---------
  -3.000   0.4424   0.01209   0.00446  -0.1673  0.6929  0.0377  -1.9976   0.0000   0.0000   0.0000   0.6325
  -2.900   0.4530   0.01200   0.00434  -0.1672  0.6900  0.0388  -1.9289   0.0000   0.0000   0.0000   0.6232
  -2.800   0.4637   0.01193   0.00424  -0.1672  0.6872  0.0400  -1.8611   0.0000   0.0000   0.0000   0.6142
  -2.700   0.4745   0.01186   0.00412  -0.1671  0.6846  0.0415  -1.7949   0.0000   0.0000   0.0000   0.6057
  -2.600   0.4852   0.01179   0.00402  -0.1670  0.6817  0.0431  -1.7299   0.0000   0.0000   0.0000   0.5975
  -2.500   0.4958   0.01171   0.00393  -0.1670  0.6787  0.0448  -1.6624   0.0000   0.0000   0.0000   0.5898
  -2.400   0.5065   0.01166   0.00386  -0.1669  0.6757  0.0467  -1.5954   0.0000   0.0000   0.0000   0.5823
  -2.300   0.5171   0.01161   0.00377  -0.1668  0.6727  0.0488  -1.5311   0.0000   0.0000   0.0000   0.5751
  -2.200   0.5278   0.01155   0.00368  -0.1667  0.6699  0.0506  -1.4672   0.0000   0.0000   0.0000   0.5682
  -2.100   0.5384   0.01150   0.00361  -0.1666  0.6672  0.0526  -1.4026   0.0000   0.0000   0.0000   0.5616
  -2.000   0.5491   0.01146   0.00354  -0.1666  0.6646  0.0549  -1.3395   0.0000   0.0000   0.0000   0.5553
  -1.900   0.5598   0.01140   0.00348  -0.1665  0.6617  0.0574  -1.2814   0.0000   0.0000   0.0000   0.5492
  -1.800   0.5704   0.01136   0.00344  -0.1664  0.6588  0.0603  -1.2262   0.0000   0.0000   0.0000   0.5433
  -1.700   0.5810   0.01133   0.00337  -0.1663  0.6559  0.0634  -1.1730   0.0000   0.0000   0.0000   0.5376
  -1.600   0.5916   0.01129   0.00333  -0.1662  0.6531  0.0663  -1.1191   0.0000   0.0000   0.0000   0.5322
  -1.500   0.6022   0.01127   0.00328  -0.1661  0.6505  0.0697  -1.0665   0.0000   0.0000   0.0000   0.5269
  -1.400   0.6128   0.01124   0.00324  -0.1660  0.6480  0.0731  -1.0139   0.0000   0.0000   0.0000   0.5218
  -1.300   0.6234   0.01121   0.00319  -0.1660  0.6452  0.0773  -0.9616   0.0000   0.0000   0.0000   0.5169
  -1.200   0.6340   0.01118   0.00317  -0.1659  0.6424  0.0815  -0.9514   0.0000   0.0000   0.0000   0.5122
  -1.100   0.6445   0.01116   0.00313  -0.1658  0.6396  0.0862  -0.9596   0.0000   0.0000   0.0000   0.5076
  -1.000   0.6551   0.01114   0.00311  -0.1657  0.6369  0.0909  -0.9678   0.0000   0.0000   0.0000   0.5032
  -0.900   0.6656   0.01113   0.00308  -0.1656  0.6343  0.0962  -0.9760   0.0000   0.0000   0.0000   0.4989
  -0.800   0.6761   0.01112   0.00306  -0.1655  0.6319  0.1022  -0.9842   0.0000   0.0000   0.0000   0.4947
  -0.700   0.6866   0.01110   0.00305  -0.1654  0.6295  0.1083  -0.9925   0.0000   0.0000   0.0000   0.4907
  -0.600   0.6972   0.01108   0.00304  -0.1653  0.6268  0.1150  -1.0007   0.0000   0.0000   0.0000   0.4868
  -0.500   0.7077   0.01107   0.00303  -0.1652  0.6241  0.1225  -1.0089   0.0000   0.0000   0.0000   0.4830
  -0.400   0.7181   0.01106   0.00303  -0.1651  0.6214  0.1305  -1.0171   0.0000   0.0000   0.0000   0.4793
  -0.300   0.7286   0.01105   0.00302  -0.1650  0.6188  0.1391  -1.0253   0.0000   0.0000   0.0000   0.4757
  -0.200   0.7390   0.01105   0.00302  -0.1649  0.6163  0.1486  -1.0335   0.0000   0.0000   0.0000   0.4722
  -0.100   0.7494   0.01105   0.00301  -0.1648  0.6140  0.1590  -1.0418   0.0000   0.0000   0.0000   0.4688
   0.000   0.7599   0.01104   0.00302  -0.1647  0.6117  0.1701  -1.0503   0.0000   0.0000   0.0000   0.4655
   0.100   0.7703   0.01102   0.00304  -0.1647  0.6092  0.1825  -1.0588   0.0000   0.0000   0.0000   0.4624
   0.200   0.7808   0.01101   0.00305  -0.1646  0.6067  0.1958  -1.0673   0.0000   0.0000   0.0000   0.4593
   0.300   0.7911   0.01100   0.00307  -0.1645  0.6042  0.2100  -1.0758   0.0000   0.0000   0.0000   0.4562
   0.400   0.8014   0.01100   0.00308  -0.1644  0.6017  0.2260  -1.0843   0.0000   0.0000   0.0000   0.4533
   0.500   0.8117   0.01099   0.00310  -0.1642  0.5993  0.2433  -1.0927   0.0000   0.0000   0.0000   0.4504
   0.600   0.8220   0.01099   0.00312  -0.1641  0.5971  0.2626  -1.1012   0.0000   0.0000   0.0000   0.4476
   0.700   0.8323   0.01098   0.00315  -0.1640  0.5949  0.2846  -1.1097   0.0000   0.0000   0.0000   0.4449
   0.800   0.8426   0.01094   0.00318  -0.1639  0.5925  0.3106  -1.1181   0.0000   0.0000   0.0000   0.4422
   0.900   0.8528   0.01090   0.00322  -0.1638  0.5900  0.3439  -1.1265   0.0000   0.0000   0.0000   0.4397
   1.000   0.8629   0.01082   0.00326  -0.1637  0.5877  0.3938  -1.1349   0.0000   0.0000   0.0000   0.4372
   1.100   0.8723   0.01063   0.00334  -0.1636  0.5854  0.5041  -1.1429   0.0000   0.0000   0.0000   0.4348
   1.300   0.8920   0.00985   0.00344  -0.1629  0.5812  1.0000  -1.1604   0.0000   0.0000   0.0000   0.4296
   1.400   0.9022   0.00992   0.00345  -0.1627  0.5792  1.0000  -1.1692   0.0000   0.0000   0.0000   0.4273
   1.500   0.9126   0.00996   0.00349  -0.1626  0.5769  1.0000  -1.1780   0.0000   0.0000   0.0000   0.4249
   1.600   0.9229   0.01001   0.00351  -0.1624  0.5746  1.0000  -1.1868   0.0000   0.0000   0.0000   0.4227
   1.700   0.9331   0.01006   0.00354  -0.1623  0.5722  1.0000  -1.1956   0.0000   0.0000   0.0000   0.4205
   1.800   0.9432   0.01012   0.00357  -0.1621  0.5699  1.0000  -1.2044   0.0000   0.0000   0.0000   0.4183
   1.900   0.9533   0.01018   0.00359  -0.1620  0.5676  1.0000  -1.2131   0.0000   0.0000   0.0000   0.4161
   2.000   0.9634   0.01024   0.00362  -0.1618  0.5655  1.0000  -1.2218   0.0000   0.0000   0.0000   0.4141
   2.100   0.9736   0.01031   0.00365  -0.1616  0.5636  1.0000  -1.2306   0.0000   0.0000   0.0000   0.4120
   2.200   0.9837   0.01037   0.00369  -0.1615  0.5617  1.0000  -1.2395   0.0000   0.0000   0.0000   0.4100
   2.300   0.9939   0.01042   0.00373  -0.1613  0.5596  1.0000  -1.2486   0.0000   0.0000   0.0000   0.4080
   2.400   1.0040   0.01047   0.00377  -0.1611  0.5574  1.0000  -1.2577   0.0000   0.0000   0.0000   0.4061
   2.500   1.0141   0.01053   0.00381  -0.1610  0.5551  1.0000  -1.2667   0.0000   0.0000   0.0000   0.4042
   2.600   1.0240   0.01059   0.00386  -0.1608  0.5529  1.0000  -1.2757   0.0000   0.0000   0.0000   0.4024
   2.700   1.0340   0.01066   0.00390  -0.1606  0.5508  1.0000  -1.2847   0.0000   0.0000   0.0000   0.4005
   2.800   1.0439   0.01073   0.00394  -0.1604  0.5487  1.0000  -1.2937   0.0000   0.0000   0.0000   0.3987
   2.900   1.0538   0.01081   0.00401  -0.1602  0.5469  1.0000  -1.3027   0.0000   0.0000   0.0000   0.3970
   3.000   1.0638   0.01087   0.00406  -0.1600  0.5449  1.0000  -1.3117   0.0000   0.0000   0.0000   0.3952
   3.100   1.0738   0.01092   0.00412  -0.1598  0.5429  1.0000  -1.3208   0.0000   0.0000   0.0000   0.3936
   3.200   1.0837   0.01098   0.00418  -0.1596  0.5408  1.0000  -1.3302   0.0000   0.0000   0.0000   0.3919
   3.300   1.0935   0.01104   0.00423  -0.1594  0.5388  1.0000  -1.3394   0.0000   0.0000   0.0000   0.3902
   3.400   1.1033   0.01111   0.00429  -0.1592  0.5367  1.0000  -1.3487   0.0000   0.0000   0.0000   0.3886
   3.500   1.1130   0.01118   0.00435  -0.1590  0.5347  1.0000  -1.3579   0.0000   0.0000   0.0000   0.3870
   3.600   1.1227   0.01126   0.00440  -0.1587  0.5327  1.0000  -1.3671   0.0000   0.0000   0.0000   0.3854
   3.700   1.1324   0.01134   0.00446  -0.1585  0.5309  1.0000  -1.3764   0.0000   0.0000   0.0000   0.3839
   3.800   1.1422   0.01141   0.00453  -0.1583  0.5290  1.0000  -1.3856   0.0000   0.0000   0.0000   0.3824
   3.900   1.1519   0.01147   0.00460  -0.1580  0.5270  1.0000  -1.3949   0.0000   0.0000   0.0000   0.3809
   4.000   1.1615   0.01153   0.00469  -0.1578  0.5250  1.0000  -1.4045   0.0000   0.0000   0.0000   0.3794
   4.100   1.1711   0.01160   0.00476  -0.1576  0.5230  1.0000  -1.4140   0.0000   0.0000   0.0000   0.3779
   4.200   1.1807   0.01167   0.00483  -0.1573  0.5210  1.0000  -1.4234   0.0000   0.0000   0.0000   0.3765
   4.300   1.1901   0.01175   0.00490  -0.1570  0.5191  1.0000  -1.4329   0.0000   0.0000   0.0000   0.3751
   4.400   1.1996   0.01183   0.00497  -0.1568  0.5172  1.0000  -1.4423   0.0000   0.0000   0.0000   0.3737
   4.500   1.2090   0.01192   0.00504  -0.1565  0.5154  1.0000  -1.4518   0.0000   0.0000   0.0000   0.3723
   4.600   1.2185   0.01200   0.00512  -0.1562  0.5137  1.0000  -1.4612   0.0000   0.0000   0.0000   0.3709
   4.700   1.2279   0.01206   0.00520  -0.1559  0.5118  1.0000  -1.4710   0.0000   0.0000   0.0000   0.3696
   4.800   1.2373   0.01213   0.00529  -0.1557  0.5098  1.0000  -1.4807   0.0000   0.0000   0.0000   0.3683
   4.900   1.2466   0.01220   0.00537  -0.1554  0.5078  1.0000  -1.4904   0.0000   0.0000   0.0000   0.3670
   5.000   1.2558   0.01228   0.00546  -0.1551  0.5059  1.0000  -1.5000   0.0000   0.0000   0.0000   0.3656
   5.100   1.2649   0.01236   0.00554  -0.1547  0.5040  1.0000  -1.5096   0.0000   0.0000   0.0000   0.3644
   5.200   1.2740   0.01245   0.00565  -0.1544  0.5022  1.0000  -1.5193   0.0000   0.0000   0.0000   0.3631
   5.300   1.2831   0.01254   0.00573  -0.1541  0.5004  1.0000  -1.5290   0.0000   0.0000   0.0000   0.3618
   5.400   1.2923   0.01263   0.00582  -0.1538  0.4988  1.0000  -1.5391   0.0000   0.0000   0.0000   0.3606
   5.500   1.3014   0.01270   0.00592  -0.1534  0.4969  1.0000  -1.5490   0.0000   0.0000   0.0000   0.3594
   5.600   1.3104   0.01278   0.00602  -0.1531  0.4950  1.0000  -1.5588   0.0000   0.0000   0.0000   0.3581
   5.700   1.3193   0.01286   0.00612  -0.1527  0.4931  1.0000  -1.5686   0.0000   0.0000   0.0000   0.3569
   5.800   1.3281   0.01294   0.00622  -0.1523  0.4912  1.0000  -1.5784   0.0000   0.0000   0.0000   0.3557
   5.900   1.3368   0.01303   0.00632  -0.1519  0.4893  1.0000  -1.5883   0.0000   0.0000   0.0000   0.3545
   6.000   1.3455   0.01312   0.00642  -0.1515  0.4875  1.0000  -1.5984   0.0000   0.0000   0.0000   0.3534
   6.100   1.3540   0.01321   0.00651  -0.1511  0.4856  1.0000  -1.6084   0.0000   0.0000   0.0000   0.3522
   6.200   1.3612   0.01331   0.00660  -0.1504  0.4822  1.0000  -1.6234   0.0000   0.0000   0.0000   0.3509
   6.300   1.3679   0.01339   0.00673  -0.1496  0.4782  1.0000  -1.6636   0.0000   0.0000   0.0000   0.3497
   6.400   1.3724   0.01348   0.00681  -0.1483  0.4724  1.0000  -1.6992   0.0000   0.0000   0.0000   0.3482
   6.500   1.3751   0.01359   0.00689  -0.1467  0.4664  1.0000  -1.7311   0.0000   0.0000   0.0000   0.3467
   6.600   1.3770   0.01368   0.00698  -0.1449  0.4591  1.0000  -1.7612   0.0000   0.0000   0.0000   0.3451
   6.700   1.3783   0.01383   0.00708  -0.1431  0.4520  1.0000  -1.7903   0.0000   0.0000   0.0000   0.3435
   6.800   1.3805   0.01396   0.00719  -0.1414  0.4435  1.0000  -1.8239   0.0000   0.0000   0.0000   0.3420
   6.900   1.3825   0.01412   0.00732  -0.1397  0.4357  1.0000  -1.8582   0.0000   0.0000   0.0000   0.3405
   7.000   1.3855   0.01428   0.00745  -0.1382  0.4278  1.0000  -1.8948   0.0000   0.0000   0.0000   0.3390
   7.100   1.3895   0.01444   0.00759  -0.1370  0.4223  1.0000  -1.9695   0.0000   0.0000   0.0000   0.3377
   7.200   1.3957   0.01456   0.00773  -0.1361  0.4185  1.0000  -2.0590   0.0000   0.0000   0.0000   0.3365
   7.300   1.4009   0.01470   0.00788  -0.1351  0.4145  1.0000  -2.1441   0.0000   0.0000   0.0000   0.3353
   7.400   1.4045   0.01488   0.00804  -0.1338  0.4100  1.0000  -2.2222   0.0000   0.0000   0.0000   0.3340
   7.500   1.4093   0.01503   0.00820  -0.1328  0.4038  1.0000  -2.3067   0.0000   0.0000   0.0000   0.3327
   7.600   1.4115   0.01525   0.00840  -0.1313  0.3968  1.0000  -2.3789   0.0000   0.0000   0.0000   0.3314
   7.700   1.4146   0.01546   0.00859  -0.1299  0.3882  1.0000  -2.4556   0.0000   0.0000   0.0000   0.3301
   7.800   1.4154   0.01573   0.00883  -0.1282  0.3786  1.0000  -2.5172   0.0000   0.0000   0.0000   0.3286
   7.900   1.4153   0.01603   0.00909  -0.1264  0.3684  1.0000  -2.5770   0.0000   0.0000   0.0000   0.3272
   8.000   1.4157   0.01635   0.00936  -0.1247  0.3565  1.0000  -2.6393   0.0000   0.0000   0.0000   0.3258
   8.100   1.4153   0.01671   0.00966  -0.1229  0.3437  1.0000  -2.6980   0.0000   0.0000   0.0000   0.3244
   8.200   1.4139   0.01712   0.01001  -0.1209  0.3302  1.0000  -2.7517   0.0000   0.0000   0.0000   0.3230
   8.300   1.4118   0.01758   0.01039  -0.1190  0.3161  1.0000  -2.8014   0.0000   0.0000   0.0000   0.3215
   8.400   1.4094   0.01808   0.01082  -0.1170  0.3002  1.0000  -2.8494   0.0000   0.0000   0.0000   0.3201
   8.500   1.4060   0.01865   0.01130  -0.1149  0.2837  1.0000  -2.8917   0.0000   0.0000   0.0000   0.3187
   8.600   1.4019   0.01928   0.01183  -0.1128  0.2669  1.0000  -2.9298   0.0000   0.0000   0.0000   0.3173
   8.700   1.3977   0.01995   0.01241  -0.1108  0.2492  1.0000  -2.9676   0.0000   0.0000   0.0000   0.3159
   8.800   1.3892   0.02086   0.01318  -0.1082  0.2258  1.0000  -2.9807   0.0000   0.0000   0.0000   0.3144
   8.900   1.3778   0.02199   0.01414  -0.1054  0.1972  1.0000  -2.9764   0.0000   0.0000   0.0000   0.3128
   9.000   1.3667   0.02315   0.01513  -0.1028  0.1698  1.0000  -2.9737   0.0000   0.0000   0.0000   0.3114
   9.100   1.3564   0.02433   0.01617  -0.1004  0.1440  1.0000  -2.9743   0.0000   0.0000   0.0000   0.3100
   9.200   1.3473   0.02549   0.01720  -0.0982  0.1208  1.0000  -2.9814   0.0000   0.0000   0.0000   0.3087
   9.300   1.3402   0.02658   0.01818  -0.0963  0.1019  1.0000  -2.9992   0.0000   0.0000   0.0000   0.3075
   9.400   1.3361   0.02750   0.01903  -0.0948  0.0881  1.0000  -3.0343   0.0000   0.0000   0.0000   0.3065
   9.500   1.3340   0.02831   0.01981  -0.0936  0.0779  1.0000  -3.0810   0.0000   0.0000   0.0000   0.3055
   9.600   1.3330   0.02907   0.02054  -0.0925  0.0699  1.0000  -3.1339   0.0000   0.0000   0.0000   0.3045
   9.700   1.3329   0.02979   0.02124  -0.0915  0.0630  1.0000  -3.1921   0.0000   0.0000   0.0000   0.3036
   9.800   1.3329   0.03051   0.02195  -0.0905  0.0572  1.0000  -3.2513   0.0000   0.0000   0.0000   0.3027
   9.900   1.3324   0.03128   0.02271  -0.0895  0.0507  1.0000  -3.3069   0.0000   0.0000   0.0000   0.3018
  10.000   1.3312   0.03213   0.02352  -0.0886  0.0436  1.0000  -3.3589   0.0000   0.0000   0.0000   0.3010
  10.100   1.3296   0.03302   0.02439  -0.0876  0.0367  1.0000  -3.4079   0.0000   0.0000   0.0000   0.3001
  10.200   1.3280   0.03393   0.02527  -0.0866  0.0300  1.0000  -3.4572   0.0000   0.0000   0.0000   0.2993
  10.300   1.3267   0.03484   0.02616  -0.0857  0.0242  1.0000  -3.5079   0.0000   0.0000   0.0000   0.2985
  10.400   1.3259   0.03572   0.02703  -0.0849  0.0196  1.0000  -3.5622   0.0000   0.0000   0.0000   0.2978
  10.500   1.3268   0.03649   0.02781  -0.0842  0.0165  1.0000  -3.6257   0.0000   0.0000   0.0000   0.2970
  10.600   1.3271   0.03731   0.02865  -0.0835  0.0135  1.0000  -3.6884   0.0000   0.0000   0.0000   0.2963
  10.700   1.3224   0.03860   0.02990  -0.0826  0.0055  1.0000  -3.7182   0.0000   0.0000   0.0000   0.2956
  10.800   1.3208   0.03964   0.03094  -0.0818  0.0029  1.0000  -3.7671   0.0000   0.0000   0.0000   0.2949
  10.900   1.3225   0.04040   0.03172  -0.0813  0.0027  1.0000  -3.8361   0.0000   0.0000   0.0000   0.2942
  11.000   1.3243   0.04115   0.03251  -0.0808  0.0025  1.0000  -3.9058   0.0000   0.0000   0.0000   0.2936
  11.100   1.3261   0.04192   0.03331  -0.0803  0.0024  1.0000  -3.9757   0.0000   0.0000   0.0000   0.2930
  11.200   1.3274   0.04274   0.03416  -0.0798  0.0022  1.0000  -4.0438   0.0000   0.0000   0.0000   0.2923
  11.300   1.3291   0.04355   0.03500  -0.0793  0.0021  1.0000  -4.1134   0.0000   0.0000   0.0000   0.2917
  11.400   1.3308   0.04435   0.03584  -0.0789  0.0020  1.0000  -4.1839   0.0000   0.0000   0.0000   0.2911
  11.500   1.3325   0.04517   0.03670  -0.0784  0.0019  1.0000  -4.2537   0.0000   0.0000   0.0000   0.2905
  11.600   1.3340   0.04603   0.03759  -0.0780  0.0018  1.0000  -4.3228   0.0000   0.0000   0.0000   0.2900
  11.700   1.3356   0.04688   0.03848  -0.0776  0.0018  1.0000  -4.3930   0.0000   0.0000   0.0000   0.2894
  11.800   1.3372   0.04774   0.03937  -0.0772  0.0017  1.0000  -4.4634   0.0000   0.0000   0.0000   0.2889
  11.900   1.3385   0.04863   0.04031  -0.0769  0.0017  1.0000  -4.5321   0.0000   0.0000   0.0000   0.2883
  12.000   1.3399   0.04954   0.04126  -0.0765  0.0016  1.0000  -4.6008   0.0000   0.0000   0.0000   0.2878
  12.100   1.3413   0.05045   0.04221  -0.0762  0.0016  1.0000  -4.6700   0.0000   0.0000   0.0000   0.2873
  12.200   1.3426   0.05139   0.04319  -0.0759  0.0016  1.0000  -4.7381   0.0000   0.0000   0.0000   0.2868
  12.300   1.3437   0.05235   0.04419  -0.0756  0.0015  1.0000  -4.8057   0.0000   0.0000   0.0000   0.2864
  12.400   1.3449   0.05332   0.04520  -0.0753  0.0015  1.0000  -4.8739   0.0000   0.0000   0.0000   0.2859
  12.500   1.3460   0.05431   0.04625  -0.0750  0.0015  1.0000  -4.9394   0.0000   0.0000   0.0000   0.2854
  12.600   1.3469   0.05533   0.04731  -0.0747  0.0015  1.0000  -5.0053   0.0000   0.0000   0.0000   0.2850
  12.700   1.3479   0.05635   0.04838  -0.0745  0.0015  1.0000  -5.0719   0.0000   0.0000   0.0000   0.2846
  12.800   1.3489   0.05739   0.04946  -0.0743  0.0014  1.0000  -5.1385   0.0000   0.0000   0.0000   0.2842
  12.900   1.3497   0.05846   0.05058  -0.0741  0.0014  1.0000  -5.2033   0.0000   0.0000   0.0000   0.2838
  13.000   1.3505   0.05954   0.05171  -0.0739  0.0014  1.0000  -5.2687   0.0000   0.0000   0.0000   0.2834
  13.100   1.3514   0.06061   0.05281  -0.0737  0.0014  1.0000  -5.3370   0.0000   0.0000   0.0000   0.2830
  13.200   1.3524   0.06169   0.05393  -0.0735  0.0014  1.0000  -5.4064   0.0000   0.0000   0.0000   0.2827
  13.300   1.3532   0.06279   0.05508  -0.0734  0.0014  1.0000  -5.4752   0.0000   0.0000   0.0000   0.2824
  13.400   1.3542   0.06390   0.05623  -0.0733  0.0014  1.0000  -5.5447   0.0000   0.0000   0.0000   0.2820
  13.500   1.3551   0.06500   0.05739  -0.0731  0.0014  1.0000  -5.6147   0.0000   0.0000   0.0000   0.2817
  13.600   1.3559   0.06615   0.05858  -0.0731  0.0014  1.0000  -5.6834   0.0000   0.0000   0.0000   0.2814
  13.700   1.3567   0.06730   0.05978  -0.0730  0.0014  1.0000  -5.7535   0.0000   0.0000   0.0000   0.2811
  13.800   1.3575   0.06846   0.06098  -0.0729  0.0014  1.0000  -5.8249   0.0000   0.0000   0.0000   0.2808
  13.900   1.3583   0.06963   0.06220  -0.0729  0.0014  1.0000  -5.8960   0.0000   0.0000   0.0000   0.2805
  14.000   1.3589   0.07083   0.06345  -0.0728  0.0014  1.0000  -5.9660   0.0000   0.0000   0.0000   0.2803
  14.100   1.3596   0.07204   0.06470  -0.0728  0.0014  1.0000  -6.0363   0.0000   0.0000   0.0000   0.2800
  14.200   1.3603   0.07324   0.06595  -0.0728  0.0014  1.0000  -6.1068   0.0000   0.0000   0.0000   0.2798
  14.300   1.3610   0.07448   0.06725  -0.0728  0.0013  1.0000  -6.1764   0.0000   0.0000   0.0000   0.2795
  14.400   1.3615   0.07574   0.06856  -0.0728  0.0013  1.0000  -6.2449   0.0000   0.0000   0.0000   0.2793
  14.500   1.3620   0.07700   0.06986  -0.0729  0.0013  1.0000  -6.3141   0.0000   0.0000   0.0000   0.2791
  14.600   1.3627   0.07826   0.07117  -0.0729  0.0013  1.0000  -6.3839   0.0000   0.0000   0.0000   0.2789
  14.700   1.3631   0.07955   0.07251  -0.0730  0.0013  1.0000  -6.4522   0.0000   0.0000   0.0000   0.2788
  14.800   1.3635   0.08087   0.07388  -0.0731  0.0013  1.0000  -6.5193   0.0000   0.0000   0.0000   0.2786
  14.900   1.3639   0.08218   0.07524  -0.0732  0.0013  1.0000  -6.5869   0.0000   0.0000   0.0000   0.2784
  15.000   1.3644   0.08349   0.07660  -0.0733  0.0013  1.0000  -6.6551   0.0000   0.0000   0.0000   0.2783


