xflr5 v6.59

 Calculated polar for: SF-15

 1 1 Reynolds number fixed          Mach number fixed         

 xtrf =   1.000 (top)        1.000 (bottom)
 Mach =   0.050     Re =     3.000 e 6     Ncrit =   5.000

  alpha     CL        CD       CDp       Cm    Top Xtr Bot Xtr   Cpmin    Chinge    XCp    
 ------- -------- --------- --------- -------- ------- ------- -------- --------- ---------
  -3.000   0.5473   0.00670   0.00141  -0.1878  0.5512  0.0132  -2.0230   0.0000   0.0000   0.0000   0.5968
  -2.900   0.5585   0.00670   0.00139  -0.1878  0.5476  0.0139  -1.9466   0.0000   0.0000   0.0000   0.5896
  -2.800   0.5699   0.00669   0.00137  -0.1878  0.5451  0.0148  -1.8705   0.0000   0.0000   0.0000   0.5827
  -2.700   0.5814   0.00667   0.00135  -0.1878  0.5426  0.0156  -1.7952   0.0000   0.0000   0.0000   0.5761
  -2.600   0.5928   0.00666   0.00133  -0.1878  0.5396  0.0164  -1.7211   0.0000   0.0000   0.0000   0.5697
  -2.500   0.6041   0.00666   0.00132  -0.1878  0.5363  0.0170  -1.6482   0.0000   0.0000   0.0000   0.5635
  -2.400   0.6153   0.00667   0.00131  -0.1878  0.5328  0.0176  -1.5767   0.0000   0.0000   0.0000   0.5576
  -2.300   0.6266   0.00666   0.00130  -0.1878  0.5296  0.0192  -1.5058   0.0000   0.0000   0.0000   0.5520
  -2.200   0.6380   0.00664   0.00128  -0.1879  0.5273  0.0218  -1.4351   0.0000   0.0000   0.0000   0.5465
  -2.100   0.6494   0.00662   0.00126  -0.1879  0.5244  0.0244  -1.3658   0.0000   0.0000   0.0000   0.5411
  -2.000   0.6607   0.00662   0.00126  -0.1879  0.5212  0.0263  -1.2977   0.0000   0.0000   0.0000   0.5360
  -1.900   0.6719   0.00662   0.00125  -0.1879  0.5176  0.0286  -1.2348   0.0000   0.0000   0.0000   0.5311
  -1.800   0.6831   0.00662   0.00125  -0.1879  0.5142  0.0306  -1.1772   0.0000   0.0000   0.0000   0.5263
  -1.700   0.6945   0.00662   0.00124  -0.1879  0.5119  0.0318  -1.1198   0.0000   0.0000   0.0000   0.5217
  -1.600   0.7058   0.00661   0.00123  -0.1880  0.5090  0.0339  -1.0636   0.0000   0.0000   0.0000   0.5172
  -1.500   0.7170   0.00662   0.00123  -0.1880  0.5057  0.0357  -1.0081   0.0000   0.0000   0.0000   0.5128
  -1.400   0.7282   0.00663   0.00123  -0.1879  0.5021  0.0370  -0.9537   0.0000   0.0000   0.0000   0.5086
  -1.300   0.7393   0.00665   0.00123  -0.1879  0.4986  0.0386  -0.9512   0.0000   0.0000   0.0000   0.5045
  -1.200   0.7506   0.00664   0.00123  -0.1879  0.4962  0.0406  -0.9606   0.0000   0.0000   0.0000   0.5005
  -1.100   0.7619   0.00665   0.00123  -0.1879  0.4932  0.0423  -0.9701   0.0000   0.0000   0.0000   0.4967
  -1.000   0.7731   0.00666   0.00123  -0.1879  0.4899  0.0440  -0.9794   0.0000   0.0000   0.0000   0.4929
  -0.900   0.7842   0.00668   0.00123  -0.1879  0.4862  0.0470  -0.9891   0.0000   0.0000   0.0000   0.4893
  -0.800   0.7953   0.00669   0.00124  -0.1879  0.4828  0.0494  -0.9988   0.0000   0.0000   0.0000   0.4858
  -0.700   0.8065   0.00669   0.00124  -0.1879  0.4803  0.0523  -1.0086   0.0000   0.0000   0.0000   0.4824
  -0.600   0.8177   0.00670   0.00125  -0.1879  0.4772  0.0548  -1.0186   0.0000   0.0000   0.0000   0.4790
  -0.500   0.8288   0.00672   0.00126  -0.1879  0.4736  0.0569  -1.0287   0.0000   0.0000   0.0000   0.4758
  -0.400   0.8398   0.00675   0.00127  -0.1878  0.4697  0.0603  -1.0387   0.0000   0.0000   0.0000   0.4726
  -0.300   0.8509   0.00676   0.00128  -0.1878  0.4668  0.0635  -1.0491   0.0000   0.0000   0.0000   0.4695
  -0.200   0.8621   0.00676   0.00129  -0.1878  0.4639  0.0680  -1.0597   0.0000   0.0000   0.0000   0.4665
  -0.100   0.8732   0.00678   0.00130  -0.1878  0.4605  0.0709  -1.0702   0.0000   0.0000   0.0000   0.4636
   0.000   0.8842   0.00681   0.00131  -0.1878  0.4566  0.0748  -1.0807   0.0000   0.0000   0.0000   0.4607
   0.100   0.8951   0.00684   0.00133  -0.1877  0.4529  0.0784  -1.0916   0.0000   0.0000   0.0000   0.4579
   0.200   0.9063   0.00684   0.00134  -0.1877  0.4502  0.0839  -1.1026   0.0000   0.0000   0.0000   0.4552
   0.300   0.9173   0.00685   0.00135  -0.1877  0.4469  0.0886  -1.1136   0.0000   0.0000   0.0000   0.4525
   0.400   0.9283   0.00688   0.00137  -0.1877  0.4431  0.0933  -1.1249   0.0000   0.0000   0.0000   0.4499
   0.500   0.9391   0.00692   0.00140  -0.1876  0.4391  0.0980  -1.1362   0.0000   0.0000   0.0000   0.4474
   0.700   0.9612   0.00694   0.00143  -0.1876  0.4329  0.1108  -1.1594   0.0000   0.0000   0.0000   0.4425
   0.800   0.9720   0.00697   0.00146  -0.1875  0.4290  0.1165  -1.1712   0.0000   0.0000   0.0000   0.4401
   0.900   0.9828   0.00701   0.00149  -0.1875  0.4249  0.1233  -1.1829   0.0000   0.0000   0.0000   0.4378
   1.000   0.9937   0.00703   0.00151  -0.1874  0.4218  0.1316  -1.1951   0.0000   0.0000   0.0000   0.4355
   1.100   1.0047   0.00704   0.00153  -0.1874  0.4183  0.1399  -1.2075   0.0000   0.0000   0.0000   0.4333
   1.200   1.0155   0.00707   0.00156  -0.1873  0.4144  0.1481  -1.2198   0.0000   0.0000   0.0000   0.4311
   1.300   1.0262   0.00711   0.00159  -0.1873  0.4103  0.1578  -1.2320   0.0000   0.0000   0.0000   0.4290
   1.400   1.0371   0.00713   0.00162  -0.1872  0.4071  0.1673  -1.2450   0.0000   0.0000   0.0000   0.4269
   1.500   1.0479   0.00715   0.00165  -0.1872  0.4034  0.1767  -1.2579   0.0000   0.0000   0.0000   0.4249
   1.600   1.0586   0.00719   0.00169  -0.1871  0.3992  0.1874  -1.2707   0.0000   0.0000   0.0000   0.4228
   1.700   1.0692   0.00723   0.00172  -0.1870  0.3951  0.1978  -1.2837   0.0000   0.0000   0.0000   0.4209
   1.800   1.0801   0.00725   0.00175  -0.1870  0.3920  0.2087  -1.2973   0.0000   0.0000   0.0000   0.4189
   1.900   1.0908   0.00728   0.00179  -0.1869  0.3879  0.2204  -1.3107   0.0000   0.0000   0.0000   0.4170
   2.000   1.1012   0.00733   0.00183  -0.1868  0.3835  0.2317  -1.3239   0.0000   0.0000   0.0000   0.4152
   2.100   1.1119   0.00736   0.00187  -0.1868  0.3799  0.2438  -1.3379   0.0000   0.0000   0.0000   0.4134
   2.200   1.1227   0.00738   0.00191  -0.1867  0.3765  0.2561  -1.3520   0.0000   0.0000   0.0000   0.4116
   2.300   1.1332   0.00742   0.00195  -0.1866  0.3721  0.2689  -1.3660   0.0000   0.0000   0.0000   0.4098
   2.400   1.1435   0.00748   0.00200  -0.1865  0.3675  0.2818  -1.3798   0.0000   0.0000   0.0000   0.4081
   2.500   1.1542   0.00750   0.00204  -0.1864  0.3642  0.2953  -1.3946   0.0000   0.0000   0.0000   0.4064
   2.600   1.1648   0.00754   0.00208  -0.1863  0.3603  0.3095  -1.4093   0.0000   0.0000   0.0000   0.4047
   2.700   1.1751   0.00759   0.00214  -0.1862  0.3559  0.3234  -1.4237   0.0000   0.0000   0.0000   0.4030
   2.800   1.1856   0.00763   0.00219  -0.1861  0.3522  0.3389  -1.4384   0.0000   0.0000   0.0000   0.4014
   2.900   1.1961   0.00766   0.00224  -0.1860  0.3483  0.3541  -1.4538   0.0000   0.0000   0.0000   0.3998
   3.000   1.2064   0.00771   0.00229  -0.1859  0.3439  0.3708  -1.4689   0.0000   0.0000   0.0000   0.3982
   3.100   1.2166   0.00776   0.00235  -0.1858  0.3398  0.3875  -1.4841   0.0000   0.0000   0.0000   0.3967
   3.200   1.2271   0.00779   0.00240  -0.1857  0.3364  0.4056  -1.4996   0.0000   0.0000   0.0000   0.3952
   3.300   1.2374   0.00783   0.00245  -0.1856  0.3322  0.4251  -1.5153   0.0000   0.0000   0.0000   0.3937
   3.400   1.2475   0.00789   0.00252  -0.1854  0.3278  0.4466  -1.5311   0.0000   0.0000   0.0000   0.3922
   3.500   1.2579   0.00792   0.00257  -0.1853  0.3245  0.4691  -1.5472   0.0000   0.0000   0.0000   0.3907
   3.600   1.2668   0.00805   0.00268  -0.1850  0.3137  0.4909  -1.5621   0.0000   0.0000   0.0000   0.3893
   3.700   1.2738   0.00830   0.00284  -0.1842  0.2912  0.5111  -1.5750   0.0000   0.0000   0.0000   0.3878
   3.800   1.2792   0.00866   0.00306  -0.1833  0.2625  0.5297  -1.5868   0.0000   0.0000   0.0000   0.3863
   3.900   1.2873   0.00882   0.00320  -0.1828  0.2491  0.5505  -1.6016   0.0000   0.0000   0.0000   0.3848
   4.000   1.2929   0.00916   0.00341  -0.1818  0.2228  0.5698  -1.6138   0.0000   0.0000   0.0000   0.3833
   4.100   1.2990   0.00944   0.00361  -0.1809  0.2018  0.5901  -1.6267   0.0000   0.0000   0.0000   0.3819
   4.200   1.3070   0.00961   0.00375  -0.1804  0.1904  0.6122  -1.6415   0.0000   0.0000   0.0000   0.3805
   4.300   1.3148   0.00978   0.00389  -0.1799  0.1787  0.6342  -1.6562   0.0000   0.0000   0.0000   0.3791
   4.500   1.3297   0.01015   0.00420  -0.1786  0.1540  0.6785  -1.6858   0.0000   0.0000   0.0000   0.3763
   4.600   1.3363   0.01037   0.00438  -0.1778  0.1400  0.7020  -1.7006   0.0000   0.0000   0.0000   0.3749
   4.800   1.3393   0.01133   0.00512  -0.1744  0.0742  0.7739  -1.7068   0.0000   0.0000   0.0000   0.3718
   4.900   1.3316   0.01181   0.00572  -0.1709  0.0163  1.0000  -1.7138   0.0000   0.0000   0.0000   0.3698
   5.000   1.3378   0.01203   0.00591  -0.1700  0.0012  1.0000  -1.7278   0.0000   0.0000   0.0000   0.3683
   5.100   1.3464   0.01212   0.00599  -0.1695  0.0010  1.0000  -1.7442   0.0000   0.0000   0.0000   0.3670
   5.200   1.3549   0.01222   0.00608  -0.1690  0.0009  1.0000  -1.7604   0.0000   0.0000   0.0000   0.3657
   5.300   1.3634   0.01231   0.00617  -0.1686  0.0007  1.0000  -1.7775   0.0000   0.0000   0.0000   0.3645
   5.400   1.3717   0.01240   0.00625  -0.1681  0.0005  1.0000  -1.7945   0.0000   0.0000   0.0000   0.3632
   5.500   1.3795   0.01249   0.00634  -0.1675  0.0004  1.0000  -1.8110   0.0000   0.0000   0.0000   0.3619
   5.600   1.3863   0.01258   0.00643  -0.1666  0.0004  1.0000  -1.8265   0.0000   0.0000   0.0000   0.3606
   5.800   1.3977   0.01276   0.00660  -0.1646  0.0004  1.0000  -1.8554   0.0000   0.0000   0.0000   0.3578
   5.900   1.4037   0.01286   0.00669  -0.1636  0.0004  1.0000  -1.8702   0.0000   0.0000   0.0000   0.3565
   6.000   1.4101   0.01295   0.00679  -0.1627  0.0004  1.0000  -1.8853   0.0000   0.0000   0.0000   0.3552
   6.100   1.4166   0.01305   0.00689  -0.1618  0.0004  1.0000  -1.9012   0.0000   0.0000   0.0000   0.3539
   6.200   1.4233   0.01316   0.00699  -0.1610  0.0004  1.0000  -1.9176   0.0000   0.0000   0.0000   0.3526
   6.300   1.4301   0.01326   0.00709  -0.1603  0.0004  1.0000  -1.9341   0.0000   0.0000   0.0000   0.3514
   6.400   1.4370   0.01337   0.00720  -0.1595  0.0004  1.0000  -1.9507   0.0000   0.0000   0.0000   0.3502
   6.500   1.4439   0.01348   0.00732  -0.1588  0.0004  1.0000  -1.9673   0.0000   0.0000   0.0000   0.3490
   6.600   1.4509   0.01360   0.00743  -0.1580  0.0004  1.0000  -1.9840   0.0000   0.0000   0.0000   0.3478
   6.700   1.4578   0.01372   0.00755  -0.1573  0.0004  1.0000  -2.0007   0.0000   0.0000   0.0000   0.3466
   6.800   1.4647   0.01384   0.00767  -0.1566  0.0004  1.0000  -2.0174   0.0000   0.0000   0.0000   0.3454
   6.900   1.4710   0.01396   0.00780  -0.1557  0.0004  1.0000  -2.0335   0.0000   0.0000   0.0000   0.3442
   7.000   1.4768   0.01409   0.00793  -0.1548  0.0004  1.0000  -2.0491   0.0000   0.0000   0.0000   0.3430
   7.100   1.4825   0.01423   0.00807  -0.1539  0.0004  1.0000  -2.0646   0.0000   0.0000   0.0000   0.3418
   7.200   1.4884   0.01437   0.00822  -0.1530  0.0004  1.0000  -2.0803   0.0000   0.0000   0.0000   0.3407
   7.300   1.4945   0.01451   0.00836  -0.1522  0.0004  1.0000  -2.0962   0.0000   0.0000   0.0000   0.3395
   7.400   1.5007   0.01465   0.00851  -0.1513  0.0004  1.0000  -2.1126   0.0000   0.0000   0.0000   0.3384
   7.500   1.5070   0.01480   0.00866  -0.1505  0.0004  1.0000  -2.1296   0.0000   0.0000   0.0000   0.3373
   7.600   1.5132   0.01495   0.00881  -0.1498  0.0004  1.0000  -2.1466   0.0000   0.0000   0.0000   0.3362
   7.700   1.5194   0.01510   0.00897  -0.1490  0.0004  1.0000  -2.1635   0.0000   0.0000   0.0000   0.3351
   7.800   1.5250   0.01527   0.00915  -0.1481  0.0004  1.0000  -2.1798   0.0000   0.0000   0.0000   0.3340
   7.900   1.5301   0.01545   0.00934  -0.1471  0.0004  1.0000  -2.1955   0.0000   0.0000   0.0000   0.3329
   8.000   1.5352   0.01564   0.00954  -0.1461  0.0004  1.0000  -2.2111   0.0000   0.0000   0.0000   0.3318
   8.100   1.5404   0.01583   0.00974  -0.1452  0.0004  1.0000  -2.2270   0.0000   0.0000   0.0000   0.3307
   8.200   1.5456   0.01604   0.00996  -0.1443  0.0004  1.0000  -2.2830   0.0000   0.0000   0.0000   0.3296
   8.600   1.5665   0.01687   0.01084  -0.1407  0.0004  1.0000  -2.6539   0.0000   0.0000   0.0000   0.3254
   8.700   1.5711   0.01710   0.01107  -0.1397  0.0005  1.0000  -2.7363   0.0000   0.0000   0.0000   0.3243
   8.800   1.5760   0.01732   0.01131  -0.1388  0.0005  1.0000  -2.8211   0.0000   0.0000   0.0000   0.3233
   8.900   1.5812   0.01755   0.01154  -0.1380  0.0005  1.0000  -2.9080   0.0000   0.0000   0.0000   0.3223
   9.000   1.5864   0.01778   0.01178  -0.1372  0.0005  1.0000  -2.9962   0.0000   0.0000   0.0000   0.3213
   9.100   1.5916   0.01801   0.01203  -0.1363  0.0005  1.0000  -3.0844   0.0000   0.0000   0.0000   0.3203
   9.200   1.5963   0.01827   0.01229  -0.1354  0.0005  1.0000  -3.1711   0.0000   0.0000   0.0000   0.3193
   9.300   1.6004   0.01854   0.01258  -0.1345  0.0005  1.0000  -3.2553   0.0000   0.0000   0.0000   0.3183
   9.400   1.6047   0.01882   0.01286  -0.1335  0.0006  1.0000  -3.3407   0.0000   0.0000   0.0000   0.3173
   9.500   1.6092   0.01909   0.01315  -0.1327  0.0006  1.0000  -3.4273   0.0000   0.0000   0.0000   0.3164
   9.600   1.6139   0.01937   0.01345  -0.1318  0.0006  1.0000  -3.5137   0.0000   0.0000   0.0000   0.3154
   9.700   1.6185   0.01966   0.01375  -0.1309  0.0006  1.0000  -3.5971   0.0000   0.0000   0.0000   0.3145
   9.800   1.6226   0.01997   0.01408  -0.1300  0.0007  1.0000  -3.6688   0.0000   0.0000   0.0000   0.3135
   9.900   1.6264   0.02029   0.01441  -0.1291  0.0008  1.0000  -3.7205   0.0000   0.0000   0.0000   0.3126
  10.000   1.6302   0.02062   0.01477  -0.1281  0.0009  1.0000  -3.7680   0.0000   0.0000   0.0000   0.3116
  10.100   1.6339   0.02098   0.01514  -0.1272  0.0010  1.0000  -3.8199   0.0000   0.0000   0.0000   0.3107
  10.200   1.6372   0.02137   0.01556  -0.1262  0.0011  1.0000  -3.8733   0.0000   0.0000   0.0000   0.3097
  10.300   1.6392   0.02184   0.01606  -0.1251  0.0011  1.0000  -3.9208   0.0000   0.0000   0.0000   0.3088
  10.400   1.6386   0.02246   0.01673  -0.1236  0.0012  1.0000  -3.9456   0.0000   0.0000   0.0000   0.3077


