xflr5 v6.59

 Calculated polar for: SF-12

 1 1 Reynolds number fixed          Mach number fixed         

 xtrf =   1.000 (top)        1.000 (bottom)
 Mach =   0.050     Re =     0.040 e 6     Ncrit =   5.000

  alpha     CL        CD       CDp       Cm    Top Xtr Bot Xtr   Cpmin    Chinge    XCp    
 ------- -------- --------- --------- -------- ------- ------- -------- --------- ---------
  -3.000   0.0414   0.04897   0.03935  -0.1003  0.7911  0.1195  -1.6859   0.0000   0.0000   0.0000   2.7259
  -2.900   0.0507   0.04817   0.03832  -0.1006  0.7886  0.1221  -1.6772   0.0000   0.0000   0.0000   2.2789
  -2.800   0.0614   0.04746   0.03743  -0.1010  0.7863  0.1249  -1.6589   0.0000   0.0000   0.0000   1.9313
  -2.700   0.0721   0.04719   0.03714  -0.1012  0.7842  0.1275  -1.6177   0.0000   0.0000   0.0000   1.6819
  -2.600   0.0853   0.04653   0.03627  -0.1018  0.7825  0.1306  -1.5911   0.0000   0.0000   0.0000   1.4680
  -2.500   0.1003   0.04552   0.03493  -0.1028  0.7811  0.1337  -1.5770   0.0000   0.0000   0.0000   1.2945
  -2.400   0.1139   0.04524   0.03466  -0.1033  0.7797  0.1363  -1.5275   0.0000   0.0000   0.0000   1.1735
  -2.300   0.1296   0.04471   0.03395  -0.1041  0.7784  0.1408  -1.4889   0.0000   0.0000   0.0000   1.0680
  -2.200   0.1249   0.04480   0.03394  -0.1021  0.7738  0.1421  -1.4889   0.0000   0.0000   0.0000   1.0820
  -2.100   0.1274   0.04471   0.03378  -0.1011  0.7701  0.1442  -1.4718   0.0000   0.0000   0.0000   1.0575
  -2.000   0.1344   0.04464   0.03371  -0.1007  0.7672  0.1466  -1.4405   0.0000   0.0000   0.0000   1.0113
  -1.900   0.1451   0.04433   0.03328  -0.1008  0.7648  0.1499  -1.4144   0.0000   0.0000   0.0000   0.9557
  -1.800   0.1578   0.04390   0.03262  -0.1012  0.7628  0.1541  -1.3911   0.0000   0.0000   0.0000   0.9011
  -1.700   0.1696   0.04374   0.03247  -0.1013  0.7610  0.1578  -1.3506   0.0000   0.0000   0.0000   0.8562
  -1.600   0.1842   0.04334   0.03182  -0.1019  0.7594  0.1634  -1.3212   0.0000   0.0000   0.0000   0.8109
  -1.500   0.1984   0.04310   0.03158  -0.1024  0.7579  0.1674  -1.2778   0.0000   0.0000   0.0000   0.7726
  -1.400   0.2146   0.04275   0.03102  -0.1031  0.7567  0.1734  -1.2404   0.0000   0.0000   0.0000   0.7362
  -1.300   0.2065   0.04314   0.03136  -0.1006  0.7514  0.1743  -1.2424   0.0000   0.0000   0.0000   0.7432
  -1.200   0.2092   0.04327   0.03152  -0.0996  0.7477  0.1767  -1.2190   0.0000   0.0000   0.0000   0.7314
  -1.100   0.2172   0.04325   0.03146  -0.0992  0.7449  0.1809  -1.1887   0.0000   0.0000   0.0000   0.7116
  -1.000   0.2289   0.04311   0.03116  -0.0993  0.7427  0.1863  -1.1573   0.0000   0.0000   0.0000   0.6883
  -0.900   0.2413   0.04302   0.03103  -0.0995  0.7406  0.1914  -1.1173   0.0000   0.0000   0.0000   0.6664
  -0.800   0.2559   0.04284   0.03071  -0.1000  0.7389  0.1981  -1.0803   0.0000   0.0000   0.0000   0.6442
  -0.700   0.2712   0.04267   0.03047  -0.1006  0.7373  0.2047  -1.0419   0.0000   0.0000   0.0000   0.6237
  -0.600   0.2877   0.04247   0.03019  -0.1013  0.7360  0.2119  -1.0023   0.0000   0.0000   0.0000   0.6045
  -0.500   0.2870   0.04280   0.03049  -0.0999  0.7319  0.2151  -0.9897   0.0000   0.0000   0.0000   0.6001
  -0.400   0.2869   0.04313   0.03073  -0.0985  0.7275  0.2189  -0.9784   0.0000   0.0000   0.0000   0.5954
  -0.300   0.2943   0.04321   0.03082  -0.0981  0.7245  0.2237  -0.9512   0.0000   0.0000   0.0000   0.5850
  -0.200   0.3056   0.04320   0.03069  -0.0982  0.7221  0.2310  -0.9211   0.0000   0.0000   0.0000   0.5726
  -0.100   0.3179   0.04313   0.03061  -0.0983  0.7200  0.2380  -0.8857   0.0000   0.0000   0.0000   0.5604
   0.000   0.3321   0.04301   0.03043  -0.0987  0.7181  0.2464  -0.8494   0.0000   0.0000   0.0000   0.5480
   0.100   0.3476   0.04288   0.03022  -0.0993  0.7166  0.2562  -0.8114   0.0000   0.0000   0.0000   0.5360
   0.200   0.3636   0.04269   0.03002  -0.0999  0.7152  0.2659  -0.7749   0.0000   0.0000   0.0000   0.5248
   0.300   0.3594   0.04323   0.03053  -0.0981  0.7104  0.2691  -0.7695   0.0000   0.0000   0.0000   0.5229
   0.400   0.3601   0.04355   0.03089  -0.0969  0.7062  0.2731  -0.7555   0.0000   0.0000   0.0000   0.5190
   0.500   0.3686   0.04366   0.03094  -0.0967  0.7032  0.2818  -0.7475   0.0000   0.0000   0.0000   0.5118
   0.600   0.3797   0.04363   0.03093  -0.0967  0.7008  0.2911  -0.7566   0.0000   0.0000   0.0000   0.5039
   0.700   0.3926   0.04354   0.03085  -0.0969  0.6988  0.3017  -0.7671   0.0000   0.0000   0.0000   0.4959
   0.800   0.4069   0.04341   0.03072  -0.0973  0.6971  0.3142  -0.7789   0.0000   0.0000   0.0000   0.4879
   0.900   0.4224   0.04323   0.03056  -0.0978  0.6956  0.3283  -0.7919   0.0000   0.0000   0.0000   0.4802
   1.000   0.4387   0.04300   0.03035  -0.0984  0.6944  0.3448  -0.8058   0.0000   0.0000   0.0000   0.4728
   1.100   0.4233   0.04400   0.03137  -0.0955  0.6873  0.3430  -0.7938   0.0000   0.0000   0.0000   0.4740
   1.200   0.4296   0.04415   0.03156  -0.0951  0.6839  0.3548  -0.7994   0.0000   0.0000   0.0000   0.4693
   1.300   0.4399   0.04412   0.03160  -0.0950  0.6813  0.3710  -0.8084   0.0000   0.0000   0.0000   0.4639
   1.500   0.4653   0.04372   0.03151  -0.0954  0.6774  0.4235  -0.8311   0.0000   0.0000   0.0000   0.4525
   1.600   0.4783   0.04319   0.03144  -0.0955  0.6760  0.4901  -0.8434   0.0000   0.0000   0.0000   0.4469
   1.700   0.5002   0.04218   0.03118  -0.0966  0.6747  1.0000  -0.8616   0.0000   0.0000   0.0000   0.4403
   1.800   0.4863   0.04320   0.03221  -0.0941  0.6678  1.0000  -0.8504   0.0000   0.0000   0.0000   0.4405
   1.900   0.4919   0.04358   0.03246  -0.0935  0.6641  1.0000  -0.8555   0.0000   0.0000   0.0000   0.4369
   2.000   0.5021   0.04381   0.03254  -0.0934  0.6614  1.0000  -0.8651   0.0000   0.0000   0.0000   0.4326
   2.100   0.5145   0.04395   0.03255  -0.0934  0.6592  1.0000  -0.8767   0.0000   0.0000   0.0000   0.4281
   2.200   0.5286   0.04403   0.03247  -0.0937  0.6574  1.0000  -0.8899   0.0000   0.0000   0.0000   0.4235
   2.300   0.5438   0.04407   0.03238  -0.0940  0.6559  1.0000  -0.9043   0.0000   0.0000   0.0000   0.4190
   2.500   0.5388   0.04544   0.03367  -0.0914  0.6459  1.0000  -0.9012   0.0000   0.0000   0.0000   0.4155
   2.600   0.5474   0.04571   0.03386  -0.0911  0.6429  1.0000  -0.9100   0.0000   0.0000   0.0000   0.4121
   2.700   0.5588   0.04587   0.03393  -0.0911  0.6405  1.0000  -0.9215   0.0000   0.0000   0.0000   0.4085
   2.800   0.5722   0.04595   0.03392  -0.0912  0.6385  1.0000  -0.9349   0.0000   0.0000   0.0000   0.4048
   2.900   0.5869   0.04597   0.03385  -0.0915  0.6370  1.0000  -0.9496   0.0000   0.0000   0.0000   0.4011
   3.000   0.5945   0.04629   0.03411  -0.0911  0.6341  1.0000  -0.9575   0.0000   0.0000   0.0000   0.3983
   3.100   0.5833   0.04738   0.03521  -0.0891  0.6272  1.0000  -0.9478   0.0000   0.0000   0.0000   0.3978
   3.200   0.5912   0.04768   0.03545  -0.0888  0.6240  1.0000  -0.9565   0.0000   0.0000   0.0000   0.3950
   3.300   0.6023   0.04784   0.03555  -0.0887  0.6216  1.0000  -0.9684   0.0000   0.0000   0.0000   0.3920
   3.400   0.6155   0.04790   0.03555  -0.0888  0.6196  1.0000  -0.9823   0.0000   0.0000   0.0000   0.3888
   3.500   0.6301   0.04790   0.03548  -0.0890  0.6181  1.0000  -0.9977   0.0000   0.0000   0.0000   0.3856
   3.600   0.6429   0.04799   0.03551  -0.0891  0.6162  1.0000  -1.0113   0.0000   0.0000   0.0000   0.3828
   3.700   0.6256   0.04945   0.03700  -0.0868  0.6080  1.0000  -0.9951   0.0000   0.0000   0.0000   0.3828
   3.800   0.6337   0.04974   0.03724  -0.0865  0.6049  1.0000  -1.0046   0.0000   0.0000   0.0000   0.3804
   3.900   0.6452   0.04987   0.03734  -0.0864  0.6025  1.0000  -1.0175   0.0000   0.0000   0.0000   0.3777
   4.000   0.6586   0.04990   0.03732  -0.0865  0.6007  1.0000  -1.0324   0.0000   0.0000   0.0000   0.3750
   4.100   0.6734   0.04987   0.03724  -0.0867  0.5991  1.0000  -1.0487   0.0000   0.0000   0.0000   0.3722
   4.300   0.6662   0.05165   0.03900  -0.0844  0.5884  1.0000  -1.0434   0.0000   0.0000   0.0000   0.3699
   4.400   0.6755   0.05188   0.03919  -0.0842  0.5856  1.0000  -1.0546   0.0000   0.0000   0.0000   0.3677
   4.500   0.6877   0.05196   0.03923  -0.0842  0.5834  1.0000  -1.0689   0.0000   0.0000   0.0000   0.3653
   4.600   0.7016   0.05194   0.03918  -0.0843  0.5817  1.0000  -1.0851   0.0000   0.0000   0.0000   0.3629
   4.700   0.7167   0.05186   0.03906  -0.0844  0.5803  1.0000  -1.1027   0.0000   0.0000   0.0000   0.3604
   4.800   0.6997   0.05355   0.04077  -0.0825  0.5722  1.0000  -1.0852   0.0000   0.0000   0.0000   0.3604
   4.900   0.7061   0.05394   0.04114  -0.0822  0.5687  1.0000  -1.0936   0.0000   0.0000   0.0000   0.3587
   5.000   0.7169   0.05408   0.04126  -0.0820  0.5663  1.0000  -1.1071   0.0000   0.0000   0.0000   0.3566
   5.100   0.7299   0.05410   0.04124  -0.0820  0.5644  1.0000  -1.1231   0.0000   0.0000   0.0000   0.3544
   5.200   0.7444   0.05402   0.04114  -0.0821  0.5628  1.0000  -1.1408   0.0000   0.0000   0.0000   0.3521
   5.500   0.7460   0.05630   0.04341  -0.0800  0.5492  1.0000  -1.1465   0.0000   0.0000   0.0000   0.3487
   5.600   0.7582   0.05635   0.04343  -0.0799  0.5471  1.0000  -1.1624   0.0000   0.0000   0.0000   0.3467
   5.700   0.7720   0.05628   0.04340  -0.0799  0.5455  1.0000  -1.1803   0.0000   0.0000   0.0000   0.3446
   5.800   0.7869   0.05613   0.04324  -0.0799  0.5441  1.0000  -1.1996   0.0000   0.0000   0.0000   0.3426
   5.900   0.7670   0.05829   0.04542  -0.0783  0.5353  1.0000  -1.1768   0.0000   0.0000   0.0000   0.3430
   6.000   0.7746   0.05863   0.04575  -0.0780  0.5322  1.0000  -1.1872   0.0000   0.0000   0.0000   0.3414
   6.100   0.7859   0.05871   0.04582  -0.0778  0.5300  1.0000  -1.2026   0.0000   0.0000   0.0000   0.3397
   6.200   0.7992   0.05865   0.04575  -0.0778  0.5282  1.0000  -1.2207   0.0000   0.0000   0.0000   0.3378
   6.300   0.8138   0.05850   0.04560  -0.0778  0.5268  1.0000  -1.2405   0.0000   0.0000   0.0000   0.3359
   6.400   0.7966   0.06062   0.04773  -0.0765  0.5187  1.0000  -1.2203   0.0000   0.0000   0.0000   0.3362
   6.500   0.8024   0.06109   0.04821  -0.0761  0.5153  1.0000  -1.2290   0.0000   0.0000   0.0000   0.3349
   6.600   0.8129   0.06122   0.04833  -0.0759  0.5129  1.0000  -1.2437   0.0000   0.0000   0.0000   0.3333
   6.700   0.8257   0.06117   0.04829  -0.0758  0.5111  1.0000  -1.2619   0.0000   0.0000   0.0000   0.3315
   6.800   0.8399   0.06101   0.04812  -0.0757  0.5096  1.0000  -1.2823   0.0000   0.0000   0.0000   0.3297
   7.000   0.8291   0.06372   0.05086  -0.0743  0.4984  1.0000  -1.2710   0.0000   0.0000   0.0000   0.3290
   7.100   0.8390   0.06389   0.05108  -0.0741  0.4959  1.0000  -1.2856   0.0000   0.0000   0.0000   0.3275
   7.200   0.8514   0.06385   0.05104  -0.0739  0.4940  1.0000  -1.3037   0.0000   0.0000   0.0000   0.3259
   7.300   0.8653   0.06369   0.05088  -0.0738  0.4925  1.0000  -1.3245   0.0000   0.0000   0.0000   0.3242
   7.500   0.8545   0.06655   0.05378  -0.0726  0.4816  1.0000  -1.3129   0.0000   0.0000   0.0000   0.3236
   7.600   0.8638   0.06676   0.05400  -0.0724  0.4790  1.0000  -1.3275   0.0000   0.0000   0.0000   0.3222
   7.700   0.8759   0.06673   0.05398  -0.0722  0.4771  1.0000  -1.3461   0.0000   0.0000   0.0000   0.3207
   7.800   0.8895   0.06655   0.05382  -0.0720  0.4756  1.0000  -1.3671   0.0000   0.0000   0.0000   0.3191
   7.900   0.9039   0.06629   0.05357  -0.0719  0.4743  1.0000  -1.3899   0.0000   0.0000   0.0000   0.3174
   8.000   0.8784   0.06962   0.05692  -0.0711  0.4648  1.0000  -1.3543   0.0000   0.0000   0.0000   0.3187
   8.100   0.8873   0.06987   0.05719  -0.0708  0.4623  1.0000  -1.3691   0.0000   0.0000   0.0000   0.3175
   8.200   0.8991   0.06984   0.05718  -0.0706  0.4604  1.0000  -1.3883   0.0000   0.0000   0.0000   0.3160
   8.300   0.9125   0.06965   0.05700  -0.0704  0.4588  1.0000  -1.4101   0.0000   0.0000   0.0000   0.3144
   8.400   0.9267   0.06936   0.05674  -0.0702  0.4575  1.0000  -1.4333   0.0000   0.0000   0.0000   0.3129
   8.500   0.9005   0.07296   0.06036  -0.0696  0.4481  1.0000  -1.3948   0.0000   0.0000   0.0000   0.3144
   8.600   0.9092   0.07323   0.06065  -0.0694  0.4456  1.0000  -1.4101   0.0000   0.0000   0.0000   0.3132
   8.700   0.9207   0.07320   0.06069  -0.0691  0.4437  1.0000  -1.4300   0.0000   0.0000   0.0000   0.3118
   8.800   0.9341   0.07299   0.06050  -0.0689  0.4422  1.0000  -1.4528   0.0000   0.0000   0.0000   0.3103
   8.900   0.9481   0.07269   0.06022  -0.0686  0.4410  1.0000  -1.4768   0.0000   0.0000   0.0000   0.3087
   9.000   0.9208   0.07661   0.06416  -0.0683  0.4316  1.0000  -1.4345   0.0000   0.0000   0.0000   0.3105
   9.100   0.9294   0.07688   0.06446  -0.0681  0.4291  1.0000  -1.4503   0.0000   0.0000   0.0000   0.3094
   9.200   0.9409   0.07685   0.06446  -0.0678  0.4273  1.0000  -1.4711   0.0000   0.0000   0.0000   0.3080
   9.300   0.9541   0.07662   0.06426  -0.0675  0.4259  1.0000  -1.4950   0.0000   0.0000   0.0000   0.3065
   9.500   0.9392   0.08059   0.06827  -0.0672  0.4152  1.0000  -1.4732   0.0000   0.0000   0.0000   0.3071
   9.600   0.9478   0.08084   0.06856  -0.0670  0.4128  1.0000  -1.4896   0.0000   0.0000   0.0000   0.3060
   9.700   0.9593   0.08080   0.06854  -0.0667  0.4111  1.0000  -1.5115   0.0000   0.0000   0.0000   0.3047
   9.800   0.9725   0.08055   0.06833  -0.0664  0.4097  1.0000  -1.5366   0.0000   0.0000   0.0000   0.3032
  10.000   0.9557   0.08491   0.07274  -0.0664  0.3990  1.0000  -1.5105   0.0000   0.0000   0.0000   0.3042
  10.100   0.9645   0.08515   0.07302  -0.0661  0.3968  1.0000  -1.5279   0.0000   0.0000   0.0000   0.3031
  10.200   0.9760   0.08508   0.07298  -0.0658  0.3951  1.0000  -1.5512   0.0000   0.0000   0.0000   0.3018
  10.300   0.9891   0.08480   0.07279  -0.0654  0.3937  1.0000  -1.5777   0.0000   0.0000   0.0000   0.3003
  10.500   0.9704   0.08958   0.07761  -0.0657  0.3831  1.0000  -1.5467   0.0000   0.0000   0.0000   0.3017
  10.600   0.9794   0.08980   0.07787  -0.0655  0.3810  1.0000  -1.5657   0.0000   0.0000   0.0000   0.3006
  10.700   0.9909   0.08970   0.07782  -0.0651  0.3793  1.0000  -1.5904   0.0000   0.0000   0.0000   0.2993
  10.800   1.0041   0.08939   0.07755  -0.0647  0.3780  1.0000  -1.6186   0.0000   0.0000   0.0000   0.2978
  10.900   0.9794   0.09378   0.08194  -0.0655  0.3705  1.0000  -1.5722   0.0000   0.0000   0.0000   0.3002
  11.000   0.9835   0.09459   0.08280  -0.0654  0.3675  1.0000  -1.5825   0.0000   0.0000   0.0000   0.2997
  11.100   0.9925   0.09480   0.08304  -0.0651  0.3654  1.0000  -1.6036   0.0000   0.0000   0.0000   0.2986
  11.200   1.0041   0.09467   0.08296  -0.0647  0.3638  1.0000  -1.6300   0.0000   0.0000   0.0000   0.2972
  11.300   1.0173   0.09432   0.08267  -0.0643  0.3626  1.0000  -1.6607   0.0000   0.0000   0.0000   0.2958
  11.400   0.9906   0.09914   0.08749  -0.0654  0.3550  1.0000  -1.6071   0.0000   0.0000   0.0000   0.2986
  11.500   0.9951   0.09992   0.08831  -0.0653  0.3522  1.0000  -1.6198   0.0000   0.0000   0.0000   0.2980
  11.600   1.0041   0.10011   0.08854  -0.0650  0.3502  1.0000  -1.6422   0.0000   0.0000   0.0000   0.2969
  11.700   1.0157   0.09995   0.08844  -0.0646  0.3486  1.0000  -1.6716   0.0000   0.0000   0.0000   0.2956
  11.800   1.0291   0.09956   0.08810  -0.0641  0.3474  1.0000  -1.7054   0.0000   0.0000   0.0000   0.2941
  11.900   1.0004   0.10477   0.09331  -0.0656  0.3398  1.0000  -1.6439   0.0000   0.0000   0.0000   0.2973
  12.000   1.0055   0.10549   0.09407  -0.0655  0.3372  1.0000  -1.6594   0.0000   0.0000   0.0000   0.2967
  12.100   1.0145   0.10568   0.09431  -0.0652  0.3353  1.0000  -1.6846   0.0000   0.0000   0.0000   0.2957
  12.200   1.0261   0.10551   0.09423  -0.0648  0.3338  1.0000  -1.7171   0.0000   0.0000   0.0000   0.2943
  12.400   1.0094   0.11060   0.09937  -0.0661  0.3250  1.0000  -1.6854   0.0000   0.0000   0.0000   0.2964
  12.500   1.0150   0.11127   0.10008  -0.0660  0.3226  1.0000  -1.7041   0.0000   0.0000   0.0000   0.2958
  12.600   1.0239   0.11146   0.10033  -0.0657  0.3207  1.0000  -1.7324   0.0000   0.0000   0.0000   0.2947
  12.700   1.0354   0.11127   0.10020  -0.0653  0.3192  1.0000  -1.7690   0.0000   0.0000   0.0000   0.2934
  12.800   1.0197   0.11488   0.10381  -0.0664  0.3141  1.0000  -1.7326   0.0000   0.0000   0.0000   0.2954
  12.900   1.0178   0.11657   0.10553  -0.0668  0.3106  1.0000  -1.7331   0.0000   0.0000   0.0000   0.2958
  13.000   1.0236   0.11720   0.10621  -0.0668  0.3083  1.0000  -1.7547   0.0000   0.0000   0.0000   0.2952
  13.100   1.0326   0.11736   0.10643  -0.0665  0.3065  1.0000  -1.7874   0.0000   0.0000   0.0000   0.2941
  13.200   1.0441   0.11716   0.10629  -0.0660  0.3050  1.0000  -1.8280   0.0000   0.0000   0.0000   0.2927
  13.300   1.0266   0.12107   0.11019  -0.0675  0.2998  1.0000  -1.7829   0.0000   0.0000   0.0000   0.2952
  13.400   1.0258   0.12260   0.11176  -0.0679  0.2966  1.0000  -1.7873   0.0000   0.0000   0.0000   0.2955
  13.500   1.0318   0.12319   0.11240  -0.0678  0.2943  1.0000  -1.8129   0.0000   0.0000   0.0000   0.2948
  13.600   1.0411   0.12331   0.11259  -0.0675  0.2925  1.0000  -1.8490   0.0000   0.0000   0.0000   0.2937
  13.700   1.0527   0.12308   0.11242  -0.0670  0.2911  1.0000  -1.8952   0.0000   0.0000   0.0000   0.2922
  13.800   1.0336   0.12726   0.11658  -0.0688  0.2859  1.0000  -1.8401   0.0000   0.0000   0.0000   0.2952
  13.900   1.0337   0.12865   0.11802  -0.0691  0.2828  1.0000  -1.8484   0.0000   0.0000   0.0000   0.2953
  14.000   1.0400   0.12918   0.11860  -0.0690  0.2806  1.0000  -1.8772   0.0000   0.0000   0.0000   0.2946
  14.100   1.0497   0.12923   0.11871  -0.0687  0.2788  1.0000  -1.9368   0.0000   0.0000   0.0000   0.2934
  14.200   1.0615   0.12893   0.11852  -0.0681  0.2774  1.0000  -2.0289   0.0000   0.0000   0.0000   0.2919
  14.300   1.0405   0.13343   0.12296  -0.0703  0.2722  1.0000  -1.9287   0.0000   0.0000   0.0000   0.2953
  14.400   1.0418   0.13466   0.12423  -0.0706  0.2693  1.0000  -1.9584   0.0000   0.0000   0.0000   0.2954
  14.500   1.0486   0.13508   0.12475  -0.0705  0.2671  1.0000  -2.0230   0.0000   0.0000   0.0000   0.2946
  14.600   1.0588   0.13502   0.12475  -0.0700  0.2654  1.0000  -2.1186   0.0000   0.0000   0.0000   0.2932
  14.700   1.0577   0.13662   0.12638  -0.0706  0.2626  1.0000  -2.1374   0.0000   0.0000   0.0000   0.2937
  14.800   1.0475   0.13955   0.12932  -0.0720  0.2586  1.0000  -2.0920   0.0000   0.0000   0.0000   0.2956
  14.900   1.0502   0.14055   0.13037  -0.0722  0.2559  1.0000  -2.1363   0.0000   0.0000   0.0000   0.2955
  15.000   1.0579   0.14081   0.13069  -0.0720  0.2538  1.0000  -2.2166   0.0000   0.0000   0.0000   0.2945


