xflr5 v6.59

 Calculated polar for: SF-15

 1 1 Reynolds number fixed          Mach number fixed         

 xtrf =   1.000 (top)        1.000 (bottom)
 Mach =   0.050     Re =     1.000 e 6     Ncrit =   5.000

  alpha     CL        CD       CDp       Cm    Top Xtr Bot Xtr   Cpmin    Chinge    XCp    
 ------- -------- --------- --------- -------- ------- ------- -------- --------- ---------
  -3.000   0.5380   0.00823   0.00216  -0.1857  0.6284  0.0262  -2.0189   0.0000   0.0000   0.0000   0.5989
  -2.900   0.5494   0.00820   0.00212  -0.1857  0.6254  0.0269  -1.9449   0.0000   0.0000   0.0000   0.5915
  -2.800   0.5607   0.00817   0.00208  -0.1857  0.6223  0.0280  -1.8715   0.0000   0.0000   0.0000   0.5845
  -2.700   0.5719   0.00815   0.00204  -0.1857  0.6192  0.0290  -1.7989   0.0000   0.0000   0.0000   0.5778
  -2.600   0.5830   0.00814   0.00201  -0.1857  0.6161  0.0301  -1.7274   0.0000   0.0000   0.0000   0.5713
  -2.500   0.5940   0.00814   0.00199  -0.1856  0.6131  0.0312  -1.6570   0.0000   0.0000   0.0000   0.5651
  -2.400   0.6054   0.00811   0.00195  -0.1856  0.6104  0.0324  -1.5865   0.0000   0.0000   0.0000   0.5590
  -2.300   0.6167   0.00809   0.00193  -0.1856  0.6075  0.0340  -1.5169   0.0000   0.0000   0.0000   0.5532
  -2.200   0.6279   0.00808   0.00190  -0.1856  0.6044  0.0355  -1.4483   0.0000   0.0000   0.0000   0.5476
  -2.100   0.6391   0.00807   0.00188  -0.1856  0.6012  0.0368  -1.3812   0.0000   0.0000   0.0000   0.5422
  -2.000   0.6501   0.00807   0.00185  -0.1856  0.5980  0.0381  -1.3152   0.0000   0.0000   0.0000   0.5371
  -1.900   0.6612   0.00807   0.00184  -0.1855  0.5952  0.0399  -1.2497   0.0000   0.0000   0.0000   0.5320
  -1.800   0.6725   0.00805   0.00182  -0.1855  0.5925  0.0417  -1.1914   0.0000   0.0000   0.0000   0.5272
  -1.700   0.6837   0.00805   0.00180  -0.1855  0.5894  0.0433  -1.1352   0.0000   0.0000   0.0000   0.5224
  -1.600   0.6948   0.00803   0.00179  -0.1855  0.5862  0.0457  -1.0797   0.0000   0.0000   0.0000   0.5179
  -1.500   0.7058   0.00804   0.00178  -0.1855  0.5830  0.0483  -1.0251   0.0000   0.0000   0.0000   0.5135
  -1.400   0.7167   0.00805   0.00177  -0.1854  0.5799  0.0506  -0.9715   0.0000   0.0000   0.0000   0.5092
  -1.300   0.7279   0.00804   0.00176  -0.1854  0.5772  0.0535  -0.9448   0.0000   0.0000   0.0000   0.5051
  -1.200   0.7391   0.00804   0.00175  -0.1854  0.5743  0.0560  -0.9542   0.0000   0.0000   0.0000   0.5010
  -1.100   0.7502   0.00803   0.00174  -0.1854  0.5711  0.0589  -0.9635   0.0000   0.0000   0.0000   0.4971
  -1.000   0.7613   0.00804   0.00174  -0.1853  0.5679  0.0623  -0.9727   0.0000   0.0000   0.0000   0.4933
  -0.900   0.7722   0.00805   0.00174  -0.1853  0.5648  0.0659  -0.9822   0.0000   0.0000   0.0000   0.4897
  -0.800   0.7831   0.00806   0.00174  -0.1852  0.5619  0.0699  -0.9917   0.0000   0.0000   0.0000   0.4861
  -0.700   0.7943   0.00805   0.00174  -0.1852  0.5591  0.0739  -1.0015   0.0000   0.0000   0.0000   0.4826
  -0.600   0.8054   0.00805   0.00174  -0.1852  0.5560  0.0780  -1.0113   0.0000   0.0000   0.0000   0.4792
  -0.500   0.8164   0.00806   0.00174  -0.1852  0.5528  0.0825  -1.0213   0.0000   0.0000   0.0000   0.4759
  -0.400   0.8272   0.00807   0.00175  -0.1851  0.5495  0.0875  -1.0313   0.0000   0.0000   0.0000   0.4727
  -0.300   0.8380   0.00809   0.00176  -0.1850  0.5465  0.0933  -1.0412   0.0000   0.0000   0.0000   0.4696
  -0.200   0.8491   0.00809   0.00176  -0.1850  0.5438  0.0989  -1.0517   0.0000   0.0000   0.0000   0.4665
  -0.100   0.8602   0.00809   0.00177  -0.1850  0.5407  0.1047  -1.0622   0.0000   0.0000   0.0000   0.4636
   0.000   0.8711   0.00810   0.00178  -0.1850  0.5374  0.1118  -1.0726   0.0000   0.0000   0.0000   0.4607
   0.100   0.8820   0.00811   0.00179  -0.1849  0.5341  0.1196  -1.0833   0.0000   0.0000   0.0000   0.4579
   0.200   0.8926   0.00813   0.00181  -0.1848  0.5310  0.1276  -1.0940   0.0000   0.0000   0.0000   0.4551
   0.300   0.9036   0.00814   0.00183  -0.1848  0.5282  0.1363  -1.1049   0.0000   0.0000   0.0000   0.4524
   0.400   0.9146   0.00814   0.00184  -0.1848  0.5251  0.1464  -1.1161   0.0000   0.0000   0.0000   0.4498
   0.500   0.9255   0.00815   0.00186  -0.1847  0.5218  0.1571  -1.1274   0.0000   0.0000   0.0000   0.4472
   0.600   0.9363   0.00816   0.00189  -0.1847  0.5185  0.1683  -1.1386   0.0000   0.0000   0.0000   0.4447
   0.700   0.9469   0.00819   0.00191  -0.1846  0.5152  0.1804  -1.1499   0.0000   0.0000   0.0000   0.4423
   0.800   0.9577   0.00819   0.00194  -0.1845  0.5124  0.1934  -1.1616   0.0000   0.0000   0.0000   0.4399
   0.900   0.9687   0.00820   0.00196  -0.1845  0.5092  0.2068  -1.1735   0.0000   0.0000   0.0000   0.4375
   1.000   0.9795   0.00821   0.00199  -0.1845  0.5058  0.2210  -1.1852   0.0000   0.0000   0.0000   0.4352
   1.100   0.9901   0.00822   0.00202  -0.1844  0.5024  0.2358  -1.1974   0.0000   0.0000   0.0000   0.4330
   1.200   1.0006   0.00825   0.00206  -0.1843  0.4991  0.2513  -1.2094   0.0000   0.0000   0.0000   0.4308
   1.300   1.0114   0.00826   0.00209  -0.1842  0.4962  0.2674  -1.2217   0.0000   0.0000   0.0000   0.4287
   1.400   1.0222   0.00827   0.00213  -0.1842  0.4929  0.2841  -1.2343   0.0000   0.0000   0.0000   0.4265
   1.500   1.0329   0.00828   0.00216  -0.1841  0.4894  0.3021  -1.2471   0.0000   0.0000   0.0000   0.4245
   1.600   1.0434   0.00831   0.00221  -0.1840  0.4859  0.3199  -1.2597   0.0000   0.0000   0.0000   0.4225
   1.700   1.0538   0.00833   0.00225  -0.1839  0.4827  0.3391  -1.2723   0.0000   0.0000   0.0000   0.4205
   1.800   1.0646   0.00834   0.00229  -0.1839  0.4796  0.3595  -1.2857   0.0000   0.0000   0.0000   0.4185
   1.900   1.0752   0.00835   0.00234  -0.1838  0.4761  0.3804  -1.2991   0.0000   0.0000   0.0000   0.4166
   2.000   1.0857   0.00837   0.00238  -0.1837  0.4724  0.4031  -1.3123   0.0000   0.0000   0.0000   0.4147
   2.100   1.0959   0.00840   0.00244  -0.1836  0.4689  0.4257  -1.3256   0.0000   0.0000   0.0000   0.4129
   2.200   1.1065   0.00841   0.00249  -0.1835  0.4658  0.4507  -1.3395   0.0000   0.0000   0.0000   0.4111
   2.300   1.1171   0.00842   0.00254  -0.1834  0.4624  0.4762  -1.3535   0.0000   0.0000   0.0000   0.4093
   2.400   1.1274   0.00844   0.00259  -0.1833  0.4586  0.5029  -1.3673   0.0000   0.0000   0.0000   0.4075
   2.500   1.1376   0.00847   0.00265  -0.1831  0.4549  0.5313  -1.3812   0.0000   0.0000   0.0000   0.4058
   2.600   1.1479   0.00849   0.00272  -0.1830  0.4516  0.5615  -1.3956   0.0000   0.0000   0.0000   0.4041
   2.700   1.1583   0.00849   0.00278  -0.1829  0.4482  0.5944  -1.4102   0.0000   0.0000   0.0000   0.4025
   2.800   1.1685   0.00850   0.00284  -0.1828  0.4444  0.6293  -1.4246   0.0000   0.0000   0.0000   0.4008
   2.900   1.1784   0.00852   0.00292  -0.1826  0.4405  0.6647  -1.4390   0.0000   0.0000   0.0000   0.3992
   3.000   1.1883   0.00853   0.00299  -0.1823  0.4371  0.7024  -1.4538   0.0000   0.0000   0.0000   0.3976
   3.100   1.1982   0.00848   0.00306  -0.1821  0.4337  0.7554  -1.4687   0.0000   0.0000   0.0000   0.3960
   3.300   1.2148   0.00826   0.00315  -0.1809  0.4261  1.0000  -1.4960   0.0000   0.0000   0.0000   0.3926
   3.400   1.2247   0.00834   0.00320  -0.1807  0.4225  1.0000  -1.5113   0.0000   0.0000   0.0000   0.3911
   3.500   1.2349   0.00840   0.00325  -0.1805  0.4189  1.0000  -1.5272   0.0000   0.0000   0.0000   0.3896
   3.600   1.2449   0.00847   0.00330  -0.1803  0.4149  1.0000  -1.5430   0.0000   0.0000   0.0000   0.3881
   3.700   1.2545   0.00856   0.00336  -0.1801  0.4108  1.0000  -1.5585   0.0000   0.0000   0.0000   0.3867
   3.800   1.2644   0.00864   0.00342  -0.1798  0.4072  1.0000  -1.5743   0.0000   0.0000   0.0000   0.3852
   3.900   1.2743   0.00871   0.00347  -0.1796  0.4032  1.0000  -1.5905   0.0000   0.0000   0.0000   0.3838
   4.000   1.2840   0.00880   0.00355  -0.1794  0.3991  1.0000  -1.6069   0.0000   0.0000   0.0000   0.3824
   4.100   1.2934   0.00889   0.00362  -0.1791  0.3952  1.0000  -1.6230   0.0000   0.0000   0.0000   0.3810
   4.200   1.3033   0.00896   0.00367  -0.1789  0.3915  1.0000  -1.6397   0.0000   0.0000   0.0000   0.3796
   4.300   1.3129   0.00904   0.00373  -0.1786  0.3872  1.0000  -1.6561   0.0000   0.0000   0.0000   0.3783
   4.400   1.3222   0.00914   0.00381  -0.1783  0.3830  1.0000  -1.6723   0.0000   0.0000   0.0000   0.3769
   4.500   1.3317   0.00923   0.00387  -0.1780  0.3793  1.0000  -1.6893   0.0000   0.0000   0.0000   0.3756
   4.600   1.3398   0.00939   0.00398  -0.1774  0.3690  1.0000  -1.7051   0.0000   0.0000   0.0000   0.3743
   4.700   1.3458   0.00966   0.00413  -0.1766  0.3507  1.0000  -1.7190   0.0000   0.0000   0.0000   0.3729
   4.800   1.3501   0.01003   0.00433  -0.1754  0.3268  1.0000  -1.7311   0.0000   0.0000   0.0000   0.3714
   4.900   1.3534   0.01043   0.00457  -0.1740  0.3006  1.0000  -1.7423   0.0000   0.0000   0.0000   0.3700
   5.000   1.3564   0.01084   0.00481  -0.1726  0.2753  1.0000  -1.7532   0.0000   0.0000   0.0000   0.3685
   5.100   1.3604   0.01119   0.00503  -0.1714  0.2545  1.0000  -1.7650   0.0000   0.0000   0.0000   0.3671
   5.200   1.3654   0.01147   0.00522  -0.1703  0.2400  1.0000  -1.7779   0.0000   0.0000   0.0000   0.3657
   5.300   1.3702   0.01175   0.00541  -0.1692  0.2261  1.0000  -1.7912   0.0000   0.0000   0.0000   0.3643
   5.400   1.3754   0.01200   0.00558  -0.1682  0.2141  1.0000  -1.8050   0.0000   0.0000   0.0000   0.3629
   5.500   1.3794   0.01224   0.00576  -0.1669  0.2027  1.0000  -1.8176   0.0000   0.0000   0.0000   0.3615
   5.600   1.3821   0.01249   0.00593  -0.1653  0.1916  1.0000  -1.8290   0.0000   0.0000   0.0000   0.3600
   5.700   1.3844   0.01275   0.00612  -0.1637  0.1803  1.0000  -1.8400   0.0000   0.0000   0.0000   0.3585
   5.800   1.3866   0.01302   0.00632  -0.1621  0.1682  1.0000  -1.8510   0.0000   0.0000   0.0000   0.3570
   5.900   1.3887   0.01332   0.00654  -0.1605  0.1553  1.0000  -1.8620   0.0000   0.0000   0.0000   0.3555
   6.000   1.3906   0.01365   0.00679  -0.1589  0.1417  1.0000  -1.8731   0.0000   0.0000   0.0000   0.3540
   6.100   1.3913   0.01404   0.00708  -0.1571  0.1259  1.0000  -1.8838   0.0000   0.0000   0.0000   0.3525
   6.200   1.3813   0.01486   0.00769  -0.1535  0.0885  1.0000  -1.8952   0.0000   0.0000   0.0000   0.3506
   6.300   1.3713   0.01571   0.00835  -0.1500  0.0520  1.0000  -1.8619   0.0000   0.0000   0.0000   0.3487
   6.400   1.3631   0.01654   0.00903  -0.1468  0.0134  1.0000  -1.8662   0.0000   0.0000   0.0000   0.3469
   6.500   1.3651   0.01689   0.00936  -0.1454  0.0012  1.0000  -1.8776   0.0000   0.0000   0.0000   0.3455
   6.600   1.3711   0.01706   0.00953  -0.1446  0.0011  1.0000  -1.8929   0.0000   0.0000   0.0000   0.3443
   6.700   1.3772   0.01724   0.00971  -0.1438  0.0010  1.0000  -1.9083   0.0000   0.0000   0.0000   0.3431
   6.800   1.3834   0.01742   0.00988  -0.1430  0.0009  1.0000  -1.9238   0.0000   0.0000   0.0000   0.3420
   6.900   1.3897   0.01759   0.01006  -0.1423  0.0008  1.0000  -1.9396   0.0000   0.0000   0.0000   0.3408
   7.000   1.3960   0.01777   0.01026  -0.1416  0.0008  1.0000  -1.9553   0.0000   0.0000   0.0000   0.3397
   7.100   1.4021   0.01796   0.01045  -0.1408  0.0007  1.0000  -1.9708   0.0000   0.0000   0.0000   0.3386
   7.200   1.4078   0.01816   0.01065  -0.1401  0.0007  1.0000  -1.9860   0.0000   0.0000   0.0000   0.3374
   7.300   1.4134   0.01836   0.01086  -0.1393  0.0007  1.0000  -2.0010   0.0000   0.0000   0.0000   0.3363
   7.400   1.4191   0.01857   0.01108  -0.1385  0.0007  1.0000  -2.0160   0.0000   0.0000   0.0000   0.3352
   7.500   1.4248   0.01878   0.01129  -0.1377  0.0007  1.0000  -2.0312   0.0000   0.0000   0.0000   0.3341
   7.600   1.4306   0.01899   0.01151  -0.1370  0.0006  1.0000  -2.0465   0.0000   0.0000   0.0000   0.3330
   7.700   1.4365   0.01921   0.01174  -0.1362  0.0006  1.0000  -2.0617   0.0000   0.0000   0.0000   0.3319
   7.800   1.4422   0.01943   0.01197  -0.1355  0.0006  1.0000  -2.0773   0.0000   0.0000   0.0000   0.3309
   7.900   1.4475   0.01967   0.01222  -0.1347  0.0006  1.0000  -2.0929   0.0000   0.0000   0.0000   0.3298
   8.000   1.4527   0.01991   0.01247  -0.1339  0.0006  1.0000  -2.1084   0.0000   0.0000   0.0000   0.3288
   8.100   1.4580   0.02016   0.01273  -0.1331  0.0006  1.0000  -2.1239   0.0000   0.0000   0.0000   0.3277
   8.200   1.4633   0.02041   0.01299  -0.1323  0.0006  1.0000  -2.1395   0.0000   0.0000   0.0000   0.3267
   8.300   1.4687   0.02067   0.01327  -0.1316  0.0006  1.0000  -2.1551   0.0000   0.0000   0.0000   0.3257
   8.400   1.4741   0.02093   0.01354  -0.1309  0.0006  1.0000  -2.1708   0.0000   0.0000   0.0000   0.3247
   8.500   1.4791   0.02120   0.01383  -0.1301  0.0006  1.0000  -2.1861   0.0000   0.0000   0.0000   0.3237
   8.600   1.4839   0.02149   0.01414  -0.1293  0.0006  1.0000  -2.2157   0.0000   0.0000   0.0000   0.3227
   8.700   1.4886   0.02179   0.01445  -0.1285  0.0006  1.0000  -2.2933   0.0000   0.0000   0.0000   0.3217
   8.800   1.4935   0.02209   0.01476  -0.1277  0.0006  1.0000  -2.3721   0.0000   0.0000   0.0000   0.3208
   8.900   1.4984   0.02239   0.01507  -0.1270  0.0006  1.0000  -2.4520   0.0000   0.0000   0.0000   0.3198
   9.000   1.5034   0.02270   0.01540  -0.1262  0.0006  1.0000  -2.5326   0.0000   0.0000   0.0000   0.3189
   9.100   1.5079   0.02303   0.01574  -0.1255  0.0006  1.0000  -2.6118   0.0000   0.0000   0.0000   0.3179
   9.200   1.5121   0.02337   0.01610  -0.1247  0.0006  1.0000  -2.6904   0.0000   0.0000   0.0000   0.3170
   9.300   1.5164   0.02372   0.01647  -0.1239  0.0006  1.0000  -2.7697   0.0000   0.0000   0.0000   0.3160
   9.400   1.5209   0.02408   0.01684  -0.1232  0.0006  1.0000  -2.8505   0.0000   0.0000   0.0000   0.3151
   9.500   1.5254   0.02443   0.01722  -0.1224  0.0006  1.0000  -2.9322   0.0000   0.0000   0.0000   0.3142
   9.600   1.5297   0.02480   0.01761  -0.1217  0.0006  1.0000  -3.0128   0.0000   0.0000   0.0000   0.3133
   9.700   1.5335   0.02520   0.01803  -0.1209  0.0006  1.0000  -3.0920   0.0000   0.0000   0.0000   0.3124
   9.800   1.5373   0.02561   0.01846  -0.1201  0.0006  1.0000  -3.1720   0.0000   0.0000   0.0000   0.3116
   9.900   1.5413   0.02602   0.01889  -0.1194  0.0006  1.0000  -3.2534   0.0000   0.0000   0.0000   0.3107
  10.000   1.5453   0.02643   0.01932  -0.1187  0.0006  1.0000  -3.3359   0.0000   0.0000   0.0000   0.3098
  10.100   1.5491   0.02686   0.01977  -0.1179  0.0006  1.0000  -3.4178   0.0000   0.0000   0.0000   0.3090
  10.200   1.5525   0.02732   0.02025  -0.1172  0.0006  1.0000  -3.4979   0.0000   0.0000   0.0000   0.3082
  10.300   1.5559   0.02778   0.02074  -0.1164  0.0006  1.0000  -3.5783   0.0000   0.0000   0.0000   0.3073
  10.400   1.5594   0.02825   0.02123  -0.1157  0.0006  1.0000  -3.6602   0.0000   0.0000   0.0000   0.3065
  10.500   1.5630   0.02873   0.02173  -0.1150  0.0006  1.0000  -3.7430   0.0000   0.0000   0.0000   0.3057
  10.600   1.5662   0.02924   0.02226  -0.1143  0.0006  1.0000  -3.8237   0.0000   0.0000   0.0000   0.3049
  10.700   1.5691   0.02977   0.02281  -0.1136  0.0006  1.0000  -3.9034   0.0000   0.0000   0.0000   0.3041
  10.800   1.5721   0.03030   0.02337  -0.1129  0.0006  1.0000  -3.9841   0.0000   0.0000   0.0000   0.3033
  10.900   1.5752   0.03084   0.02393  -0.1122  0.0006  1.0000  -4.0660   0.0000   0.0000   0.0000   0.3026
  11.000   1.5782   0.03140   0.02452  -0.1115  0.0006  1.0000  -4.1470   0.0000   0.0000   0.0000   0.3018
  11.100   1.5806   0.03200   0.02515  -0.1108  0.0006  1.0000  -4.2260   0.0000   0.0000   0.0000   0.3011
  11.200   1.5831   0.03260   0.02578  -0.1102  0.0006  1.0000  -4.3053   0.0000   0.0000   0.0000   0.3003
  11.300   1.5858   0.03321   0.02641  -0.1095  0.0006  1.0000  -4.3860   0.0000   0.0000   0.0000   0.2996
  11.400   1.5883   0.03383   0.02706  -0.1089  0.0006  1.0000  -4.4659   0.0000   0.0000   0.0000   0.2989
  11.500   1.5903   0.03451   0.02776  -0.1082  0.0006  1.0000  -4.5430   0.0000   0.0000   0.0000   0.2982
  11.600   1.5924   0.03519   0.02847  -0.1076  0.0006  1.0000  -4.6206   0.0000   0.0000   0.0000   0.2975
  11.700   1.5947   0.03586   0.02918  -0.1070  0.0006  1.0000  -4.6996   0.0000   0.0000   0.0000   0.2968
  11.800   1.5967   0.03658   0.02992  -0.1064  0.0006  1.0000  -4.7769   0.0000   0.0000   0.0000   0.2962
  11.900   1.5984   0.03733   0.03070  -0.1058  0.0006  1.0000  -4.8521   0.0000   0.0000   0.0000   0.2955
  12.000   1.6001   0.03808   0.03148  -0.1052  0.0006  1.0000  -4.9283   0.0000   0.0000   0.0000   0.2949
  12.100   1.6020   0.03884   0.03227  -0.1047  0.0006  1.0000  -5.0051   0.0000   0.0000   0.0000   0.2943
  12.200   1.6033   0.03965   0.03312  -0.1041  0.0006  1.0000  -5.0783   0.0000   0.0000   0.0000   0.2936
  12.300   1.6046   0.04049   0.03398  -0.1036  0.0006  1.0000  -5.1511   0.0000   0.0000   0.0000   0.2931
  12.400   1.6060   0.04132   0.03484  -0.1031  0.0006  1.0000  -5.2255   0.0000   0.0000   0.0000   0.2925
  12.500   1.6072   0.04219   0.03574  -0.1026  0.0007  1.0000  -5.2978   0.0000   0.0000   0.0000   0.2919
  12.600   1.6081   0.04311   0.03670  -0.1021  0.0007  1.0000  -5.3678   0.0000   0.0000   0.0000   0.2914
  12.700   1.6091   0.04402   0.03765  -0.1017  0.0007  1.0000  -5.4388   0.0000   0.0000   0.0000   0.2908
  12.800   1.6101   0.04496   0.03862  -0.1013  0.0007  1.0000  -5.5092   0.0000   0.0000   0.0000   0.2903
  12.900   1.6106   0.04596   0.03966  -0.1008  0.0007  1.0000  -5.5762   0.0000   0.0000   0.0000   0.2898
  13.000   1.6111   0.04697   0.04070  -0.1004  0.0007  1.0000  -5.6440   0.0000   0.0000   0.0000   0.2893
  13.100   1.6117   0.04799   0.04176  -0.1001  0.0007  1.0000  -5.7112   0.0000   0.0000   0.0000   0.2888
  13.200   1.6117   0.04909   0.04290  -0.0997  0.0007  1.0000  -5.7747   0.0000   0.0000   0.0000   0.2884
  13.300   1.6119   0.05019   0.04403  -0.0994  0.0007  1.0000  -5.8390   0.0000   0.0000   0.0000   0.2880
  13.400   1.6120   0.05132   0.04519  -0.0991  0.0007  1.0000  -5.9023   0.0000   0.0000   0.0000   0.2876
  13.500   1.6116   0.05251   0.04643  -0.0988  0.0007  1.0000  -5.9623   0.0000   0.0000   0.0000   0.2872
  13.600   1.6114   0.05371   0.04766  -0.0985  0.0007  1.0000  -6.0234   0.0000   0.0000   0.0000   0.2868
  13.700   1.6110   0.05496   0.04895  -0.0983  0.0007  1.0000  -6.0821   0.0000   0.0000   0.0000   0.2864
  13.800   1.6102   0.05626   0.05029  -0.0981  0.0007  1.0000  -6.1389   0.0000   0.0000   0.0000   0.2861
  13.900   1.6097   0.05755   0.05163  -0.0979  0.0007  1.0000  -6.1966   0.0000   0.0000   0.0000   0.2858
  14.000   1.6086   0.05894   0.05306  -0.0978  0.0007  1.0000  -6.2502   0.0000   0.0000   0.0000   0.2855
  14.100   1.6076   0.06033   0.05449  -0.0977  0.0007  1.0000  -6.3042   0.0000   0.0000   0.0000   0.2853
  14.200   1.6065   0.06176   0.05596  -0.0976  0.0007  1.0000  -6.3569   0.0000   0.0000   0.0000   0.2850
  14.300   1.6050   0.06326   0.05751  -0.0976  0.0007  1.0000  -6.4068   0.0000   0.0000   0.0000   0.2849
  14.400   1.6038   0.06475   0.05904  -0.0976  0.0007  1.0000  -6.4578   0.0000   0.0000   0.0000   0.2847
  14.500   1.6020   0.06634   0.06068  -0.0976  0.0008  1.0000  -6.5048   0.0000   0.0000   0.0000   0.2845
  14.600   1.6003   0.06793   0.06231  -0.0977  0.0008  1.0000  -6.5523   0.0000   0.0000   0.0000   0.2844
  14.700   1.5984   0.06958   0.06401  -0.0977  0.0008  1.0000  -6.5979   0.0000   0.0000   0.0000   0.2843
  14.800   1.5963   0.07128   0.06576  -0.0979  0.0008  1.0000  -6.6416   0.0000   0.0000   0.0000   0.2842
  14.900   1.5943   0.07299   0.06751  -0.0980  0.0008  1.0000  -6.6855   0.0000   0.0000   0.0000   0.2841
  15.000   1.5919   0.07479   0.06935  -0.0983  0.0008  1.0000  -6.7259   0.0000   0.0000   0.0000   0.2841


