xflr5 v6.59

 Calculated polar for: SF-14

 1 1 Reynolds number fixed          Mach number fixed         

 xtrf =   1.000 (top)        1.000 (bottom)
 Mach =   0.050     Re =     0.060 e 6     Ncrit =   5.000

  alpha     CL        CD       CDp       Cm    Top Xtr Bot Xtr   Cpmin    Chinge    XCp    
 ------- -------- --------- --------- -------- ------- ------- -------- --------- ---------
  -3.000   0.2601   0.03672   0.02807  -0.1423  0.7858  0.0648  -1.7842   0.0000   0.0000   0.0000   0.8047
  -2.900   0.2764   0.03595   0.02717  -0.1435  0.7848  0.0670  -1.7397   0.0000   0.0000   0.0000   0.7762
  -2.700   0.2814   0.03519   0.02609  -0.1413  0.7749  0.0698  -1.7434   0.0000   0.0000   0.0000   0.7585
  -2.600   0.2942   0.03437   0.02506  -0.1419  0.7725  0.0717  -1.7265   0.0000   0.0000   0.0000   0.7382
  -2.500   0.3073   0.03383   0.02444  -0.1424  0.7706  0.0733  -1.6823   0.0000   0.0000   0.0000   0.7188
  -2.400   0.3224   0.03304   0.02345  -0.1432  0.7690  0.0749  -1.6541   0.0000   0.0000   0.0000   0.6992
  -2.300   0.3385   0.03217   0.02230  -0.1441  0.7677  0.0771  -1.6320   0.0000   0.0000   0.0000   0.6803
  -2.200   0.3540   0.03155   0.02153  -0.1449  0.7664  0.0803  -1.5868   0.0000   0.0000   0.0000   0.6635
  -2.100   0.3697   0.03106   0.02094  -0.1457  0.7652  0.0840  -1.5316   0.0000   0.0000   0.0000   0.6480
  -2.000   0.3865   0.03035   0.01998  -0.1466  0.7641  0.0874  -1.4945   0.0000   0.0000   0.0000   0.6328
  -1.800   0.3903   0.03042   0.01999  -0.1438  0.7546  0.0900  -1.4448   0.0000   0.0000   0.0000   0.6215
  -1.700   0.4014   0.03010   0.01954  -0.1437  0.7521  0.0934  -1.4050   0.0000   0.0000   0.0000   0.6110
  -1.600   0.4143   0.02978   0.01915  -0.1441  0.7501  0.0975  -1.3532   0.0000   0.0000   0.0000   0.6003
  -1.500   0.4282   0.02943   0.01868  -0.1445  0.7484  0.1023  -1.3021   0.0000   0.0000   0.0000   0.5897
  -1.400   0.4426   0.02903   0.01821  -0.1449  0.7469  0.1062  -1.2488   0.0000   0.0000   0.0000   0.5796
  -1.300   0.4577   0.02865   0.01772  -0.1455  0.7456  0.1119  -1.2011   0.0000   0.0000   0.0000   0.5697
  -1.200   0.4730   0.02831   0.01737  -0.1461  0.7444  0.1178  -1.1479   0.0000   0.0000   0.0000   0.5606
  -1.100   0.4888   0.02793   0.01690  -0.1468  0.7434  0.1242  -1.0994   0.0000   0.0000   0.0000   0.5517
  -0.900   0.4894   0.02838   0.01730  -0.1434  0.7333  0.1307  -1.0608   0.0000   0.0000   0.0000   0.5441
  -0.800   0.5012   0.02822   0.01713  -0.1435  0.7311  0.1374  -1.0142   0.0000   0.0000   0.0000   0.5372
  -0.700   0.5147   0.02800   0.01686  -0.1438  0.7292  0.1451  -0.9666   0.0000   0.0000   0.0000   0.5301
  -0.600   0.5291   0.02776   0.01657  -0.1443  0.7277  0.1545  -0.9161   0.0000   0.0000   0.0000   0.5232
  -0.500   0.5442   0.02751   0.01625  -0.1448  0.7263  0.1651  -0.8730   0.0000   0.0000   0.0000   0.5165
  -0.400   0.5599   0.02724   0.01596  -0.1455  0.7251  0.1775  -0.8841   0.0000   0.0000   0.0000   0.5101
  -0.300   0.5761   0.02696   0.01566  -0.1463  0.7239  0.1918  -0.8959   0.0000   0.0000   0.0000   0.5039
  -0.100   0.5785   0.02748   0.01621  -0.1433  0.7148  0.2074  -0.8978   0.0000   0.0000   0.0000   0.4974
   0.000   0.5890   0.02739   0.01616  -0.1432  0.7123  0.2220  -0.9055   0.0000   0.0000   0.0000   0.4927
   0.200   0.6156   0.02702   0.01585  -0.1440  0.7087  0.2657  -0.9250   0.0000   0.0000   0.0000   0.4830
   0.300   0.6303   0.02676   0.01568  -0.1446  0.7072  0.2966  -0.9358   0.0000   0.0000   0.0000   0.4784
   0.400   0.6458   0.02642   0.01548  -0.1453  0.7060  0.3411  -0.9471   0.0000   0.0000   0.0000   0.4739
   0.500   0.6612   0.02592   0.01532  -0.1461  0.7049  0.4256  -0.9587   0.0000   0.0000   0.0000   0.4697
   0.600   0.6736   0.02464   0.01505  -0.1456  0.7039  1.0000  -0.9690   0.0000   0.0000   0.0000   0.4648
   0.700   0.6614   0.02545   0.01589  -0.1422  0.6966  1.0000  -0.9599   0.0000   0.0000   0.0000   0.4634
   0.800   0.6702   0.02561   0.01591  -0.1418  0.6938  1.0000  -0.9666   0.0000   0.0000   0.0000   0.4599
   0.900   0.6820   0.02568   0.01583  -0.1418  0.6916  1.0000  -0.9756   0.0000   0.0000   0.0000   0.4562
   1.000   0.6954   0.02569   0.01571  -0.1421  0.6899  1.0000  -0.9858   0.0000   0.0000   0.0000   0.4524
   1.100   0.7097   0.02567   0.01557  -0.1426  0.6884  1.0000  -0.9967   0.0000   0.0000   0.0000   0.4488
   1.200   0.7248   0.02563   0.01540  -0.1431  0.6871  1.0000  -1.0083   0.0000   0.0000   0.0000   0.4452
   1.300   0.7406   0.02557   0.01523  -0.1438  0.6859  1.0000  -1.0204   0.0000   0.0000   0.0000   0.4418
   1.400   0.7426   0.02596   0.01558  -0.1425  0.6821  1.0000  -1.0221   0.0000   0.0000   0.0000   0.4393
   1.500   0.7407   0.02648   0.01608  -0.1406  0.6773  1.0000  -1.0207   0.0000   0.0000   0.0000   0.4371
   1.600   0.7495   0.02664   0.01617  -0.1402  0.6746  1.0000  -1.0275   0.0000   0.0000   0.0000   0.4343
   1.700   0.7613   0.02670   0.01616  -0.1403  0.6726  1.0000  -1.0367   0.0000   0.0000   0.0000   0.4314
   1.800   0.7746   0.02672   0.01609  -0.1406  0.6709  1.0000  -1.0474   0.0000   0.0000   0.0000   0.4285
   1.900   0.7889   0.02670   0.01600  -0.1411  0.6695  1.0000  -1.0589   0.0000   0.0000   0.0000   0.4256
   2.000   0.8041   0.02665   0.01588  -0.1416  0.6683  1.0000  -1.0710   0.0000   0.0000   0.0000   0.4228
   2.100   0.8200   0.02660   0.01574  -0.1423  0.6671  1.0000  -1.0837   0.0000   0.0000   0.0000   0.4201
   2.200   0.8129   0.02732   0.01648  -0.1397  0.6619  1.0000  -1.0784   0.0000   0.0000   0.0000   0.4183
   2.300   0.8146   0.02773   0.01688  -0.1384  0.6581  1.0000  -1.0799   0.0000   0.0000   0.0000   0.4161
   2.400   0.8239   0.02788   0.01700  -0.1381  0.6557  1.0000  -1.0875   0.0000   0.0000   0.0000   0.4138
   2.500   0.8360   0.02794   0.01700  -0.1382  0.6539  1.0000  -1.0972   0.0000   0.0000   0.0000   0.4114
   2.600   0.8495   0.02795   0.01696  -0.1386  0.6523  1.0000  -1.1084   0.0000   0.0000   0.0000   0.4090
   2.700   0.8641   0.02793   0.01688  -0.1391  0.6510  1.0000  -1.1205   0.0000   0.0000   0.0000   0.4067
   2.800   0.8795   0.02788   0.01677  -0.1397  0.6498  1.0000  -1.1334   0.0000   0.0000   0.0000   0.4045
   2.900   0.8956   0.02782   0.01665  -0.1404  0.6487  1.0000  -1.1467   0.0000   0.0000   0.0000   0.4023
   3.100   0.8820   0.02925   0.01813  -0.1353  0.6392  1.0000  -1.1366   0.0000   0.0000   0.0000   0.3987
   3.200   0.8921   0.02938   0.01823  -0.1352  0.6371  1.0000  -1.1452   0.0000   0.0000   0.0000   0.3966
   3.300   0.9049   0.02943   0.01824  -0.1354  0.6354  1.0000  -1.1559   0.0000   0.0000   0.0000   0.3946
   3.400   0.9193   0.02943   0.01820  -0.1359  0.6340  1.0000  -1.1680   0.0000   0.0000   0.0000   0.3927
   3.500   0.9346   0.02939   0.01814  -0.1365  0.6328  1.0000  -1.1812   0.0000   0.0000   0.0000   0.3908
   3.600   0.9506   0.02934   0.01804  -0.1372  0.6317  1.0000  -1.1949   0.0000   0.0000   0.0000   0.3890
   3.700   0.9671   0.02926   0.01794  -0.1380  0.6307  1.0000  -1.2091   0.0000   0.0000   0.0000   0.3872
   3.900   0.9428   0.03110   0.01983  -0.1314  0.6204  1.0000  -1.1904   0.0000   0.0000   0.0000   0.3836
   4.000   0.9540   0.03120   0.01997  -0.1315  0.6187  1.0000  -1.2003   0.0000   0.0000   0.0000   0.3819
   4.100   0.9674   0.03122   0.01997  -0.1318  0.6172  1.0000  -1.2119   0.0000   0.0000   0.0000   0.3802
   4.200   0.9824   0.03120   0.01993  -0.1324  0.6159  1.0000  -1.2252   0.0000   0.0000   0.0000   0.3785
   4.300   0.9985   0.03114   0.01986  -0.1331  0.6148  1.0000  -1.2395   0.0000   0.0000   0.0000   0.3770
   4.400   1.0157   0.03106   0.01977  -0.1340  0.6139  1.0000  -1.2547   0.0000   0.0000   0.0000   0.3754
   4.600   0.9874   0.03319   0.02195  -0.1271  0.6038  1.0000  -1.2322   0.0000   0.0000   0.0000   0.3720
   4.700   0.9972   0.03335   0.02211  -0.1270  0.6019  1.0000  -1.2413   0.0000   0.0000   0.0000   0.3705
   4.800   1.0097   0.03340   0.02216  -0.1272  0.6004  1.0000  -1.2526   0.0000   0.0000   0.0000   0.3689
   4.900   1.0240   0.03338   0.02214  -0.1276  0.5992  1.0000  -1.2659   0.0000   0.0000   0.0000   0.3674
   5.000   1.0395   0.03332   0.02208  -0.1282  0.5981  1.0000  -1.2802   0.0000   0.0000   0.0000   0.3660
   5.100   1.0560   0.03323   0.02203  -0.1289  0.5971  1.0000  -1.2955   0.0000   0.0000   0.0000   0.3647
   5.200   1.0736   0.03312   0.02193  -0.1298  0.5962  1.0000  -1.3116   0.0000   0.0000   0.0000   0.3634
   5.400   1.0337   0.03600   0.02487  -0.1220  0.5849  1.0000  -1.2778   0.0000   0.0000   0.0000   0.3602
   5.500   1.0458   0.03606   0.02494  -0.1221  0.5835  1.0000  -1.2895   0.0000   0.0000   0.0000   0.3588
   5.600   1.0596   0.03603   0.02493  -0.1224  0.5823  1.0000  -1.3029   0.0000   0.0000   0.0000   0.3574
   5.700   1.0747   0.03596   0.02486  -0.1229  0.5813  1.0000  -1.3175   0.0000   0.0000   0.0000   0.3561
   5.800   1.0908   0.03584   0.02477  -0.1235  0.5804  1.0000  -1.3331   0.0000   0.0000   0.0000   0.3548
   5.900   1.1079   0.03571   0.02465  -0.1243  0.5795  1.0000  -1.3495   0.0000   0.0000   0.0000   0.3536
   6.300   1.0902   0.03921   0.02825  -0.1172  0.5653  1.0000  -1.3369   0.0000   0.0000   0.0000   0.3484
   6.400   1.1051   0.03910   0.02817  -0.1176  0.5643  1.0000  -1.3520   0.0000   0.0000   0.0000   0.3472
   6.500   1.1210   0.03895   0.02805  -0.1181  0.5635  1.0000  -1.3680   0.0000   0.0000   0.0000   0.3459
   6.600   1.1378   0.03878   0.02795  -0.1187  0.5628  1.0000  -1.3849   0.0000   0.0000   0.0000   0.3448
   6.800   1.0911   0.04301   0.03219  -0.1120  0.5501  1.0000  -1.3409   0.0000   0.0000   0.0000   0.3428
   6.900   1.1038   0.04298   0.03224  -0.1121  0.5490  1.0000  -1.3545   0.0000   0.0000   0.0000   0.3416
   7.000   1.1176   0.04288   0.03218  -0.1123  0.5481  1.0000  -1.3692   0.0000   0.0000   0.0000   0.3403
   7.100   1.1325   0.04273   0.03206  -0.1125  0.5473  1.0000  -1.3851   0.0000   0.0000   0.0000   0.3391
   7.200   1.1482   0.04254   0.03192  -0.1129  0.5466  1.0000  -1.4022   0.0000   0.0000   0.0000   0.3379
   7.700   1.1237   0.04852   0.03805  -0.1065  0.5280  1.0000  -1.3808   0.0000   0.0000   0.0000   0.3336
   7.800   1.1538   0.04713   0.03672  -0.1076  0.5297  1.0000  -1.4561   0.0000   0.0000   0.0000   0.3320
   8.200   1.0996   0.05565   0.04535  -0.1019  0.5076  1.0000  -1.4018   0.0000   0.0000   0.0000   0.3308
   8.300   1.1026   0.05642   0.04617  -0.1015  0.5049  1.0000  -1.4262   0.0000   0.0000   0.0000   0.3300
   8.400   1.1111   0.05669   0.04648  -0.1012  0.5033  1.0000  -1.4638   0.0000   0.0000   0.0000   0.3289
   8.500   1.1210   0.05680   0.04665  -0.1010  0.5020  1.0000  -1.5051   0.0000   0.0000   0.0000   0.3278
   8.600   1.1321   0.05679   0.04669  -0.1008  0.5010  1.0000  -1.5533   0.0000   0.0000   0.0000   0.3266
   8.700   1.1442   0.05669   0.04669  -0.1007  0.5001  1.0000  -1.6056   0.0000   0.0000   0.0000   0.3254
   8.800   1.1569   0.05652   0.04659  -0.1006  0.4994  1.0000  -1.6604   0.0000   0.0000   0.0000   0.3241
   8.900   1.1703   0.05631   0.04644  -0.1005  0.4987  1.0000  -1.7172   0.0000   0.0000   0.0000   0.3229
   9.200   1.1486   0.06171   0.05194  -0.0982  0.4850  1.0000  -1.7180   0.0000   0.0000   0.0000   0.3221
   9.300   1.1608   0.06157   0.05188  -0.0981  0.4841  1.0000  -1.7745   0.0000   0.0000   0.0000   0.3209
   9.400   1.1735   0.06138   0.05176  -0.0979  0.4834  1.0000  -1.8369   0.0000   0.0000   0.0000   0.3196
   9.600   1.1437   0.06672   0.05714  -0.0964  0.4711  1.0000  -1.7889   0.0000   0.0000   0.0000   0.3202
   9.700   1.1551   0.06667   0.05716  -0.0961  0.4701  1.0000  -1.8558   0.0000   0.0000   0.0000   0.3190
   9.800   1.1669   0.06656   0.05713  -0.0959  0.4691  1.0000  -1.9545   0.0000   0.0000   0.0000   0.3178
   9.900   1.1794   0.06638   0.05703  -0.0957  0.4684  1.0000  -2.0581   0.0000   0.0000   0.0000   0.3166
  10.200   1.1636   0.07153   0.06230  -0.0944  0.4553  1.0000  -2.0959   0.0000   0.0000   0.0000   0.3161
  10.300   1.1755   0.07140   0.06226  -0.0941  0.4543  1.0000  -2.1993   0.0000   0.0000   0.0000   0.3149
  10.400   1.1880   0.07119   0.06218  -0.0939  0.4535  1.0000  -2.3090   0.0000   0.0000   0.0000   0.3136
  10.600   1.1634   0.07624   0.06724  -0.0931  0.4418  1.0000  -2.2554   0.0000   0.0000   0.0000   0.3143
  10.700   1.1748   0.07615   0.06728  -0.0928  0.4406  1.0000  -2.3607   0.0000   0.0000   0.0000   0.3132
  10.800   1.1870   0.07595   0.06717  -0.0926  0.4396  1.0000  -2.4714   0.0000   0.0000   0.0000   0.3119
  10.900   1.2000   0.07563   0.06696  -0.0923  0.4387  1.0000  -2.5878   0.0000   0.0000   0.0000   0.3106
  11.900   1.2315   0.08122   0.07328  -0.0878  0.3978  1.0000  -3.3275   0.0000   0.0000   0.0000   0.3031
  12.000   1.2244   0.08306   0.07516  -0.0876  0.3911  1.0000  -3.3310   0.0000   0.0000   0.0000   0.3031
  12.100   1.2510   0.07900   0.07127  -0.0857  0.3846  1.0000  -3.6032   0.0000   0.0000   0.0000   0.2998
  12.200   1.2516   0.07951   0.07184  -0.0851  0.3777  1.0000  -3.6692   0.0000   0.0000   0.0000   0.2990
  12.300   1.2679   0.07728   0.06973  -0.0838  0.3709  1.0000  -3.8612   0.0000   0.0000   0.0000   0.2968
  12.400   1.2676   0.07815   0.07067  -0.0833  0.3647  1.0000  -3.9187   0.0000   0.0000   0.0000   0.2963
  12.500   1.2713   0.07833   0.07093  -0.0828  0.3582  1.0000  -4.0089   0.0000   0.0000   0.0000   0.2954
  12.600   1.2754   0.07849   0.07117  -0.0822  0.3518  1.0000  -4.1015   0.0000   0.0000   0.0000   0.2945
  12.700   1.2756   0.07930   0.07206  -0.0818  0.3449  1.0000  -4.1639   0.0000   0.0000   0.0000   0.2940
  12.800   1.2758   0.08016   0.07299  -0.0815  0.3379  1.0000  -4.2248   0.0000   0.0000   0.0000   0.2935
  12.900   1.2820   0.07993   0.07285  -0.0808  0.3299  1.0000  -4.3368   0.0000   0.0000   0.0000   0.2924
  13.000   1.2739   0.08230   0.07527  -0.0810  0.3225  1.0000  -4.3288   0.0000   0.0000   0.0000   0.2928
  13.100   1.2784   0.08242   0.07547  -0.0804  0.3136  1.0000  -4.4256   0.0000   0.0000   0.0000   0.2919
  13.200   1.2802   0.08304   0.07616  -0.0800  0.3038  1.0000  -4.4996   0.0000   0.0000   0.0000   0.2913
  13.300   1.2745   0.08508   0.07826  -0.0802  0.2947  1.0000  -4.5100   0.0000   0.0000   0.0000   0.2915
  13.400   1.2748   0.08602   0.07926  -0.0800  0.2833  1.0000  -4.5702   0.0000   0.0000   0.0000   0.2911
  13.500   1.2780   0.08640   0.07970  -0.0795  0.2688  1.0000  -4.6551   0.0000   0.0000   0.0000   0.2903
  13.600   1.2820   0.08659   0.07987  -0.0789  0.2484  1.0000  -4.7482   0.0000   0.0000   0.0000   0.2894
  13.700   1.2956   0.08460   0.07745  -0.0771  0.2005  1.0000  -4.9302   0.0000   0.0000   0.0000   0.2870
  13.800   1.2933   0.08577   0.07830  -0.0767  0.1744  1.0000  -4.9733   0.0000   0.0000   0.0000   0.2866
  13.900   1.2879   0.08764   0.07997  -0.0767  0.1578  1.0000  -4.9878   0.0000   0.0000   0.0000   0.2866
  14.000   1.2821   0.08970   0.08187  -0.0769  0.1453  1.0000  -4.9962   0.0000   0.0000   0.0000   0.2868
  14.100   1.2766   0.09178   0.08383  -0.0771  0.1350  1.0000  -5.0044   0.0000   0.0000   0.0000   0.2871
  14.200   1.2715   0.09384   0.08578  -0.0774  0.1264  1.0000  -5.0138   0.0000   0.0000   0.0000   0.2874
  14.300   1.2669   0.09586   0.08771  -0.0777  0.1189  1.0000  -5.0257   0.0000   0.0000   0.0000   0.2877
  14.400   1.2631   0.09778   0.08957  -0.0780  0.1120  1.0000  -5.0420   0.0000   0.0000   0.0000   0.2879
  14.500   1.2597   0.09965   0.09137  -0.0783  0.1062  1.0000  -5.0606   0.0000   0.0000   0.0000   0.2881
  14.600   1.2565   0.10148   0.09314  -0.0786  0.1012  1.0000  -5.0805   0.0000   0.0000   0.0000   0.2883
  14.700   1.2545   0.10316   0.09480  -0.0789  0.0959  1.0000  -5.1065   0.0000   0.0000   0.0000   0.2884
  14.800   1.2519   0.10490   0.09648  -0.0792  0.0920  1.0000  -5.1304   0.0000   0.0000   0.0000   0.2886
  14.900   1.2510   0.10642   0.09799  -0.0795  0.0870  1.0000  -5.1622   0.0000   0.0000   0.0000   0.2887
  15.000   1.2492   0.10803   0.09953  -0.0798  0.0836  1.0000  -5.1911   0.0000   0.0000   0.0000   0.2888


