xflr5 v6.59

 Calculated polar for: SF-13

 1 1 Reynolds number fixed          Mach number fixed         

 xtrf =   1.000 (top)        1.000 (bottom)
 Mach =   0.050     Re =     0.230 e 6     Ncrit =   5.000

  alpha     CL        CD       CDp       Cm    Top Xtr Bot Xtr   Cpmin    Chinge    XCp    
 ------- -------- --------- --------- -------- ------- ------- -------- --------- ---------
  -3.000   0.3000   0.01343   0.00515  -0.1271  0.6877  0.0835  -1.4941   0.0000   0.0000   0.0000   0.6799
  -2.900   0.3110   0.01337   0.00508  -0.1271  0.6858  0.0862  -1.4487   0.0000   0.0000   0.0000   0.6644
  -2.800   0.3219   0.01330   0.00500  -0.1270  0.6840  0.0889  -1.4037   0.0000   0.0000   0.0000   0.6498
  -2.700   0.3328   0.01323   0.00494  -0.1270  0.6822  0.0918  -1.3581   0.0000   0.0000   0.0000   0.6363
  -2.600   0.3438   0.01318   0.00486  -0.1269  0.6805  0.0951  -1.3133   0.0000   0.0000   0.0000   0.6235
  -2.500   0.3549   0.01312   0.00479  -0.1268  0.6788  0.0982  -1.2686   0.0000   0.0000   0.0000   0.6115
  -2.400   0.3659   0.01307   0.00472  -0.1268  0.6773  0.1016  -1.2240   0.0000   0.0000   0.0000   0.6002
  -2.200   0.3882   0.01297   0.00459  -0.1267  0.6743  0.1090  -1.1359   0.0000   0.0000   0.0000   0.5795
  -2.100   0.3990   0.01293   0.00456  -0.1267  0.6724  0.1132  -1.0971   0.0000   0.0000   0.0000   0.5702
  -2.000   0.4098   0.01288   0.00453  -0.1266  0.6704  0.1172  -1.0588   0.0000   0.0000   0.0000   0.5614
  -1.900   0.4206   0.01284   0.00450  -0.1265  0.6684  0.1218  -1.0208   0.0000   0.0000   0.0000   0.5530
  -1.800   0.4315   0.01279   0.00447  -0.1265  0.6665  0.1263  -0.9830   0.0000   0.0000   0.0000   0.5450
  -1.700   0.4424   0.01275   0.00443  -0.1264  0.6645  0.1315  -0.9455   0.0000   0.0000   0.0000   0.5374
  -1.600   0.4533   0.01270   0.00439  -0.1264  0.6626  0.1366  -0.9081   0.0000   0.0000   0.0000   0.5302
  -1.500   0.4643   0.01267   0.00434  -0.1263  0.6607  0.1425  -0.8709   0.0000   0.0000   0.0000   0.5232
  -1.400   0.4753   0.01262   0.00431  -0.1263  0.6590  0.1482  -0.8443   0.0000   0.0000   0.0000   0.5166
  -1.300   0.4863   0.01259   0.00427  -0.1262  0.6573  0.1546  -0.8531   0.0000   0.0000   0.0000   0.5102
  -1.200   0.4975   0.01256   0.00423  -0.1262  0.6558  0.1616  -0.8621   0.0000   0.0000   0.0000   0.5041
  -1.100   0.5084   0.01253   0.00420  -0.1261  0.6541  0.1685  -0.8709   0.0000   0.0000   0.0000   0.4984
  -1.000   0.5191   0.01250   0.00421  -0.1261  0.6519  0.1758  -0.8795   0.0000   0.0000   0.0000   0.4929
  -0.900   0.5298   0.01247   0.00420  -0.1260  0.6498  0.1838  -0.8885   0.0000   0.0000   0.0000   0.4877
  -0.800   0.5405   0.01243   0.00420  -0.1259  0.6476  0.1921  -0.8975   0.0000   0.0000   0.0000   0.4826
  -0.700   0.5513   0.01240   0.00419  -0.1258  0.6455  0.2008  -0.9066   0.0000   0.0000   0.0000   0.4778
  -0.600   0.5621   0.01237   0.00417  -0.1258  0.6434  0.2100  -0.9159   0.0000   0.0000   0.0000   0.4731
  -0.500   0.5730   0.01234   0.00415  -0.1257  0.6414  0.2200  -0.9255   0.0000   0.0000   0.0000   0.4685
  -0.300   0.5948   0.01228   0.00411  -0.1256  0.6377  0.2417  -0.9448   0.0000   0.0000   0.0000   0.4599
  -0.200   0.6059   0.01225   0.00409  -0.1255  0.6360  0.2536  -0.9547   0.0000   0.0000   0.0000   0.4559
  -0.100   0.6165   0.01222   0.00410  -0.1254  0.6339  0.2662  -0.9645   0.0000   0.0000   0.0000   0.4520
   0.000   0.6270   0.01219   0.00413  -0.1253  0.6316  0.2796  -0.9742   0.0000   0.0000   0.0000   0.4483
   0.100   0.6375   0.01216   0.00414  -0.1252  0.6292  0.2940  -0.9839   0.0000   0.0000   0.0000   0.4446
   0.200   0.6481   0.01212   0.00415  -0.1251  0.6269  0.3100  -0.9937   0.0000   0.0000   0.0000   0.4411
   0.300   0.6586   0.01207   0.00415  -0.1250  0.6246  0.3280  -1.0040   0.0000   0.0000   0.0000   0.4377
   0.400   0.6692   0.01202   0.00415  -0.1249  0.6224  0.3489  -1.0143   0.0000   0.0000   0.0000   0.4344
   0.500   0.6798   0.01196   0.00415  -0.1248  0.6204  0.3741  -1.0246   0.0000   0.0000   0.0000   0.4312
   0.600   0.6903   0.01189   0.00414  -0.1247  0.6184  0.4059  -1.0349   0.0000   0.0000   0.0000   0.4281
   0.700   0.7006   0.01179   0.00415  -0.1246  0.6166  0.4483  -1.0454   0.0000   0.0000   0.0000   0.4251
   0.800   0.7100   0.01166   0.00421  -0.1243  0.6141  0.5041  -1.0553   0.0000   0.0000   0.0000   0.4222
   0.900   0.7188   0.01149   0.00428  -0.1239  0.6116  0.5772  -1.0649   0.0000   0.0000   0.0000   0.4193
   1.000   0.7269   0.01130   0.00433  -0.1232  0.6091  0.6621  -1.0742   0.0000   0.0000   0.0000   0.4164
   1.100   0.7343   0.01109   0.00436  -0.1222  0.6067  0.7495  -1.0830   0.0000   0.0000   0.0000   0.4132
   1.300   0.7723   0.01078   0.00431  -0.1251  0.6016  1.0000  -1.1169   0.0000   0.0000   0.0000   0.4085
   1.400   0.7829   0.01082   0.00430  -0.1250  0.5995  1.0000  -1.1282   0.0000   0.0000   0.0000   0.4059
   1.500   0.7935   0.01086   0.00430  -0.1249  0.5973  1.0000  -1.1395   0.0000   0.0000   0.0000   0.4035
   1.600   0.8037   0.01091   0.00434  -0.1247  0.5945  1.0000  -1.1507   0.0000   0.0000   0.0000   0.4012
   1.700   0.8140   0.01095   0.00437  -0.1245  0.5917  1.0000  -1.1622   0.0000   0.0000   0.0000   0.3989
   1.800   0.8243   0.01099   0.00439  -0.1243  0.5889  1.0000  -1.1738   0.0000   0.0000   0.0000   0.3966
   1.900   0.8346   0.01103   0.00440  -0.1242  0.5863  1.0000  -1.1854   0.0000   0.0000   0.0000   0.3944
   2.000   0.8450   0.01108   0.00441  -0.1240  0.5837  1.0000  -1.1971   0.0000   0.0000   0.0000   0.3922
   2.100   0.8555   0.01112   0.00441  -0.1238  0.5813  1.0000  -1.2093   0.0000   0.0000   0.0000   0.3901
   2.200   0.8658   0.01117   0.00442  -0.1237  0.5789  1.0000  -1.2215   0.0000   0.0000   0.0000   0.3881
   2.300   0.8759   0.01122   0.00447  -0.1235  0.5760  1.0000  -1.2334   0.0000   0.0000   0.0000   0.3861
   2.400   0.8861   0.01127   0.00451  -0.1233  0.5730  1.0000  -1.2454   0.0000   0.0000   0.0000   0.3841
   2.500   0.8962   0.01132   0.00454  -0.1231  0.5701  1.0000  -1.2575   0.0000   0.0000   0.0000   0.3822
   2.600   0.9063   0.01137   0.00456  -0.1229  0.5672  1.0000  -1.2700   0.0000   0.0000   0.0000   0.3803
   2.700   0.9165   0.01142   0.00458  -0.1227  0.5645  1.0000  -1.2827   0.0000   0.0000   0.0000   0.3784
   2.800   0.9268   0.01148   0.00459  -0.1225  0.5620  1.0000  -1.2955   0.0000   0.0000   0.0000   0.3766
   2.900   0.9368   0.01153   0.00464  -0.1223  0.5590  1.0000  -1.3079   0.0000   0.0000   0.0000   0.3749
   3.000   0.9467   0.01158   0.00469  -0.1221  0.5559  1.0000  -1.3204   0.0000   0.0000   0.0000   0.3731
   3.100   0.9566   0.01164   0.00473  -0.1219  0.5527  1.0000  -1.3334   0.0000   0.0000   0.0000   0.3714
   3.200   0.9665   0.01170   0.00479  -0.1216  0.5496  1.0000  -1.3465   0.0000   0.0000   0.0000   0.3697
   3.300   0.9765   0.01176   0.00482  -0.1214  0.5467  1.0000  -1.3596   0.0000   0.0000   0.0000   0.3681
   3.400   0.9864   0.01182   0.00484  -0.1212  0.5440  1.0000  -1.3728   0.0000   0.0000   0.0000   0.3664
   3.500   0.9962   0.01188   0.00491  -0.1209  0.5408  1.0000  -1.3857   0.0000   0.0000   0.0000   0.3649
   3.600   1.0059   0.01195   0.00497  -0.1207  0.5374  1.0000  -1.3992   0.0000   0.0000   0.0000   0.3633
   3.700   1.0155   0.01201   0.00502  -0.1204  0.5341  1.0000  -1.4127   0.0000   0.0000   0.0000   0.3618
   3.800   1.0252   0.01208   0.00507  -0.1201  0.5308  1.0000  -1.4262   0.0000   0.0000   0.0000   0.3602
   3.900   1.0348   0.01215   0.00510  -0.1198  0.5277  1.0000  -1.4397   0.0000   0.0000   0.0000   0.3587
   4.000   1.0444   0.01222   0.00516  -0.1195  0.5246  1.0000  -1.4533   0.0000   0.0000   0.0000   0.3573
   4.100   1.0538   0.01229   0.00523  -0.1192  0.5212  1.0000  -1.4672   0.0000   0.0000   0.0000   0.3558
   4.200   1.0632   0.01236   0.00530  -0.1189  0.5176  1.0000  -1.4811   0.0000   0.0000   0.0000   0.3544
   4.300   1.0725   0.01244   0.00537  -0.1186  0.5141  1.0000  -1.4950   0.0000   0.0000   0.0000   0.3530
   4.400   1.0817   0.01252   0.00543  -0.1183  0.5108  1.0000  -1.5089   0.0000   0.0000   0.0000   0.3516
   4.500   1.0910   0.01261   0.00549  -0.1179  0.5076  1.0000  -1.5229   0.0000   0.0000   0.0000   0.3502
   4.600   1.1002   0.01268   0.00557  -0.1176  0.5040  1.0000  -1.5373   0.0000   0.0000   0.0000   0.3489
   4.700   1.1092   0.01276   0.00565  -0.1172  0.5003  1.0000  -1.5516   0.0000   0.0000   0.0000   0.3475
   4.800   1.1181   0.01285   0.00572  -0.1168  0.4966  1.0000  -1.5658   0.0000   0.0000   0.0000   0.3462
   4.900   1.1269   0.01294   0.00579  -0.1164  0.4932  1.0000  -1.5800   0.0000   0.0000   0.0000   0.3449
   5.000   1.1357   0.01304   0.00586  -0.1160  0.4898  1.0000  -1.5943   0.0000   0.0000   0.0000   0.3436
   5.100   1.1446   0.01312   0.00596  -0.1156  0.4861  1.0000  -1.6091   0.0000   0.0000   0.0000   0.3423
   5.200   1.1532   0.01321   0.00604  -0.1152  0.4822  1.0000  -1.6238   0.0000   0.0000   0.0000   0.3410
   5.300   1.1615   0.01331   0.00612  -0.1147  0.4785  1.0000  -1.6383   0.0000   0.0000   0.0000   0.3397
   5.400   1.1698   0.01342   0.00620  -0.1142  0.4750  1.0000  -1.6527   0.0000   0.0000   0.0000   0.3385
   5.500   1.1783   0.01352   0.00632  -0.1137  0.4714  1.0000  -1.6673   0.0000   0.0000   0.0000   0.3372
   5.600   1.1866   0.01361   0.00642  -0.1132  0.4675  1.0000  -1.6824   0.0000   0.0000   0.0000   0.3360
   5.700   1.1946   0.01372   0.00652  -0.1127  0.4636  1.0000  -1.6973   0.0000   0.0000   0.0000   0.3348
   5.800   1.2022   0.01383   0.00661  -0.1121  0.4599  1.0000  -1.7119   0.0000   0.0000   0.0000   0.3335
   5.900   1.2100   0.01395   0.00671  -0.1115  0.4564  1.0000  -1.7265   0.0000   0.0000   0.0000   0.3323
   6.000   1.2179   0.01405   0.00682  -0.1110  0.4525  1.0000  -1.7413   0.0000   0.0000   0.0000   0.3311
   6.100   1.2254   0.01416   0.00693  -0.1104  0.4485  1.0000  -1.7564   0.0000   0.0000   0.0000   0.3299
   6.200   1.2326   0.01429   0.00704  -0.1097  0.4447  1.0000  -1.7713   0.0000   0.0000   0.0000   0.3287
   6.300   1.2394   0.01442   0.00715  -0.1089  0.4412  1.0000  -1.7858   0.0000   0.0000   0.0000   0.3274
   6.400   1.2468   0.01453   0.00727  -0.1083  0.4374  1.0000  -1.8008   0.0000   0.0000   0.0000   0.3263
   6.500   1.2537   0.01465   0.00739  -0.1076  0.4334  1.0000  -1.8154   0.0000   0.0000   0.0000   0.3251
   6.600   1.2602   0.01478   0.00751  -0.1068  0.4296  1.0000  -1.8301   0.0000   0.0000   0.0000   0.3238
   6.700   1.2662   0.01492   0.00765  -0.1059  0.4260  1.0000  -1.8446   0.0000   0.0000   0.0000   0.3226
   6.800   1.2723   0.01505   0.00778  -0.1051  0.4225  1.0000  -1.8591   0.0000   0.0000   0.0000   0.3214
   6.900   1.2779   0.01517   0.00791  -0.1041  0.4186  1.0000  -1.8731   0.0000   0.0000   0.0000   0.3201
   7.000   1.2826   0.01530   0.00804  -0.1030  0.4148  1.0000  -1.8862   0.0000   0.0000   0.0000   0.3188
   7.100   1.2868   0.01545   0.00817  -0.1017  0.4113  1.0000  -1.8992   0.0000   0.0000   0.0000   0.3174
   7.200   1.2912   0.01561   0.00831  -0.1006  0.4080  1.0000  -1.9127   0.0000   0.0000   0.0000   0.3161
   7.300   1.2966   0.01574   0.00846  -0.0996  0.4043  1.0000  -1.9271   0.0000   0.0000   0.0000   0.3149
   7.400   1.3014   0.01589   0.00862  -0.0985  0.4005  1.0000  -1.9410   0.0000   0.0000   0.0000   0.3136
   7.500   1.3048   0.01607   0.00878  -0.0972  0.3960  1.0000  -1.9535   0.0000   0.0000   0.0000   0.3123
   7.600   1.3073   0.01627   0.00896  -0.0958  0.3907  1.0000  -1.9651   0.0000   0.0000   0.0000   0.3109
   7.700   1.3093   0.01648   0.00915  -0.0943  0.3841  1.0000  -1.9766   0.0000   0.0000   0.0000   0.3095
   7.900   1.3110   0.01698   0.00959  -0.0911  0.3699  1.0000  -1.9973   0.0000   0.0000   0.0000   0.3066
   8.000   1.3102   0.01730   0.00985  -0.0892  0.3627  1.0000  -2.0058   0.0000   0.0000   0.0000   0.3051
   8.100   1.3110   0.01758   0.01011  -0.0877  0.3542  1.0000  -2.0160   0.0000   0.0000   0.0000   0.3037
   8.200   1.3099   0.01793   0.01041  -0.0859  0.3468  1.0000  -2.0240   0.0000   0.0000   0.0000   0.3022
   8.300   1.3095   0.01828   0.01073  -0.0843  0.3372  1.0000  -2.0330   0.0000   0.0000   0.0000   0.3008
   8.400   1.3089   0.01866   0.01107  -0.0827  0.3291  1.0000  -2.0420   0.0000   0.0000   0.0000   0.2994
   8.500   1.3083   0.01906   0.01142  -0.0811  0.3209  1.0000  -2.0509   0.0000   0.0000   0.0000   0.2981
   8.600   1.3087   0.01944   0.01177  -0.0797  0.3132  1.0000  -2.0609   0.0000   0.0000   0.0000   0.2968
   8.700   1.3086   0.01986   0.01215  -0.0783  0.3062  1.0000  -2.0703   0.0000   0.0000   0.0000   0.2956
   8.800   1.3101   0.02023   0.01250  -0.0771  0.2999  1.0000  -2.0816   0.0000   0.0000   0.0000   0.2944
   8.900   1.3125   0.02058   0.01284  -0.0760  0.2949  1.0000  -2.0945   0.0000   0.0000   0.0000   0.2934
   9.000   1.3145   0.02095   0.01320  -0.0749  0.2911  1.0000  -2.1069   0.0000   0.0000   0.0000   0.2923
   9.100   1.3182   0.02126   0.01352  -0.0741  0.2870  1.0000  -2.1214   0.0000   0.0000   0.0000   0.2913
   9.200   1.3214   0.02161   0.01386  -0.0732  0.2828  1.0000  -2.1354   0.0000   0.0000   0.0000   0.2903
   9.300   1.3237   0.02199   0.01424  -0.0722  0.2789  1.0000  -2.1490   0.0000   0.0000   0.0000   0.2893
   9.400   1.3266   0.02236   0.01461  -0.0713  0.2751  1.0000  -2.1632   0.0000   0.0000   0.0000   0.2883
   9.500   1.3299   0.02272   0.01497  -0.0705  0.2710  1.0000  -2.1784   0.0000   0.0000   0.0000   0.2874
   9.600   1.3324   0.02313   0.01537  -0.0696  0.2670  1.0000  -2.1930   0.0000   0.0000   0.0000   0.2864
   9.700   1.3348   0.02355   0.01579  -0.0687  0.2634  1.0000  -2.2498   0.0000   0.0000   0.0000   0.2855
   9.800   1.3383   0.02392   0.01617  -0.0679  0.2595  1.0000  -2.3121   0.0000   0.0000   0.0000   0.2846
   9.900   1.3410   0.02434   0.01659  -0.0671  0.2555  1.0000  -2.3708   0.0000   0.0000   0.0000   0.2837
  10.000   1.3431   0.02479   0.01705  -0.0662  0.2521  1.0000  -2.4287   0.0000   0.0000   0.0000   0.2828
  10.100   1.3466   0.02519   0.01746  -0.0655  0.2483  1.0000  -2.4915   0.0000   0.0000   0.0000   0.2820
  10.200   1.3494   0.02562   0.01789  -0.0647  0.2444  1.0000  -2.5519   0.0000   0.0000   0.0000   0.2811
  10.300   1.3515   0.02610   0.01837  -0.0639  0.2408  1.0000  -2.6091   0.0000   0.0000   0.0000   0.2802
  10.400   1.3542   0.02655   0.01883  -0.0631  0.2373  1.0000  -2.6695   0.0000   0.0000   0.0000   0.2794
  10.500   1.3575   0.02699   0.01927  -0.0624  0.2335  1.0000  -2.7323   0.0000   0.0000   0.0000   0.2786
  10.600   1.3597   0.02748   0.01977  -0.0617  0.2298  1.0000  -2.7907   0.0000   0.0000   0.0000   0.2778
  10.700   1.3616   0.02801   0.02030  -0.0609  0.2265  1.0000  -2.8477   0.0000   0.0000   0.0000   0.2770
  10.800   1.3648   0.02846   0.02076  -0.0603  0.2226  1.0000  -2.9111   0.0000   0.0000   0.0000   0.2762
  10.900   1.3659   0.02905   0.02134  -0.0595  0.2175  1.0000  -2.9651   0.0000   0.0000   0.0000   0.2754
  11.000   1.3663   0.02969   0.02197  -0.0587  0.2116  1.0000  -3.0157   0.0000   0.0000   0.0000   0.2746
  11.100   1.3656   0.03042   0.02267  -0.0578  0.2048  1.0000  -3.0609   0.0000   0.0000   0.0000   0.2738
  11.200   1.3652   0.03115   0.02336  -0.0570  0.1970  1.0000  -3.1076   0.0000   0.0000   0.0000   0.2730
  11.300   1.3637   0.03196   0.02414  -0.0561  0.1894  1.0000  -3.1490   0.0000   0.0000   0.0000   0.2722
  11.400   1.3619   0.03282   0.02495  -0.0552  0.1815  1.0000  -3.1892   0.0000   0.0000   0.0000   0.2714
  11.500   1.3609   0.03364   0.02573  -0.0545  0.1733  1.0000  -3.2329   0.0000   0.0000   0.0000   0.2707
  11.600   1.3602   0.03446   0.02652  -0.0537  0.1663  1.0000  -3.2779   0.0000   0.0000   0.0000   0.2700
  11.700   1.3602   0.03523   0.02728  -0.0531  0.1610  1.0000  -3.3265   0.0000   0.0000   0.0000   0.2693
  11.800   1.3613   0.03593   0.02799  -0.0525  0.1554  1.0000  -3.3793   0.0000   0.0000   0.0000   0.2687
  11.900   1.3613   0.03673   0.02877  -0.0519  0.1504  1.0000  -3.4279   0.0000   0.0000   0.0000   0.2680
  12.000   1.3619   0.03750   0.02953  -0.0513  0.1450  1.0000  -3.4787   0.0000   0.0000   0.0000   0.2674
  12.100   1.3621   0.03830   0.03032  -0.0507  0.1398  1.0000  -3.5282   0.0000   0.0000   0.0000   0.2667
  12.200   1.3622   0.03912   0.03113  -0.0502  0.1343  1.0000  -3.5771   0.0000   0.0000   0.0000   0.2661
  12.300   1.3621   0.03999   0.03199  -0.0496  0.1289  1.0000  -3.6244   0.0000   0.0000   0.0000   0.2655
  12.400   1.3617   0.04089   0.03287  -0.0491  0.1233  1.0000  -3.6702   0.0000   0.0000   0.0000   0.2650
  12.500   1.3615   0.04178   0.03375  -0.0486  0.1174  1.0000  -3.7175   0.0000   0.0000   0.0000   0.2644
  12.600   1.3608   0.04274   0.03469  -0.0481  0.1117  1.0000  -3.7616   0.0000   0.0000   0.0000   0.2639
  12.700   1.3590   0.04380   0.03572  -0.0476  0.1049  1.0000  -3.8000   0.0000   0.0000   0.0000   0.2633
  12.800   1.3563   0.04497   0.03685  -0.0471  0.0968  1.0000  -3.8336   0.0000   0.0000   0.0000   0.2628
  12.900   1.3528   0.04624   0.03807  -0.0466  0.0881  1.0000  -3.8623   0.0000   0.0000   0.0000   0.2624
  13.000   1.3489   0.04757   0.03935  -0.0462  0.0793  1.0000  -3.8892   0.0000   0.0000   0.0000   0.2619
  13.100   1.3446   0.04896   0.04069  -0.0457  0.0704  1.0000  -3.9136   0.0000   0.0000   0.0000   0.2615
  13.200   1.3388   0.05055   0.04222  -0.0453  0.0605  1.0000  -3.9291   0.0000   0.0000   0.0000   0.2611
  13.300   1.3308   0.05239   0.04397  -0.0449  0.0487  1.0000  -3.9326   0.0000   0.0000   0.0000   0.2608
  13.400   1.3216   0.05440   0.04590  -0.0446  0.0369  1.0000  -3.9294   0.0000   0.0000   0.0000   0.2606
  13.500   1.3127   0.05645   0.04786  -0.0443  0.0258  1.0000  -3.9264   0.0000   0.0000   0.0000   0.2604
  13.600   1.3042   0.05851   0.04986  -0.0441  0.0162  1.0000  -3.9252   0.0000   0.0000   0.0000   0.2603
  13.700   1.2967   0.06050   0.05181  -0.0440  0.0077  1.0000  -3.9289   0.0000   0.0000   0.0000   0.2602
  13.800   1.2914   0.06229   0.05360  -0.0440  0.0035  1.0000  -3.9439   0.0000   0.0000   0.0000   0.2601
  13.900   1.2913   0.06348   0.05482  -0.0439  0.0031  1.0000  -3.9884   0.0000   0.0000   0.0000   0.2598
  14.000   1.2920   0.06458   0.05596  -0.0439  0.0029  1.0000  -4.0372   0.0000   0.0000   0.0000   0.2596
  14.100   1.2924   0.06573   0.05714  -0.0439  0.0027  1.0000  -4.0851   0.0000   0.0000   0.0000   0.2593
  14.200   1.2927   0.06691   0.05836  -0.0439  0.0025  1.0000  -4.1321   0.0000   0.0000   0.0000   0.2591
  14.300   1.2933   0.06806   0.05954  -0.0439  0.0023  1.0000  -4.1811   0.0000   0.0000   0.0000   0.2589
  14.400   1.2941   0.06919   0.06072  -0.0439  0.0022  1.0000  -4.2309   0.0000   0.0000   0.0000   0.2587
  14.500   1.2947   0.07037   0.06195  -0.0440  0.0021  1.0000  -4.2794   0.0000   0.0000   0.0000   0.2585
  14.600   1.2952   0.07156   0.06317  -0.0441  0.0021  1.0000  -4.3278   0.0000   0.0000   0.0000   0.2584
  14.700   1.2960   0.07272   0.06438  -0.0442  0.0020  1.0000  -4.3786   0.0000   0.0000   0.0000   0.2582
  14.800   1.2968   0.07390   0.06560  -0.0443  0.0020  1.0000  -4.4294   0.0000   0.0000   0.0000   0.2581
  14.900   1.2973   0.07513   0.06688  -0.0444  0.0020  1.0000  -4.4786   0.0000   0.0000   0.0000   0.2579
  15.000   1.2978   0.07636   0.06815  -0.0446  0.0019  1.0000  -4.5279   0.0000   0.0000   0.0000   0.2578
  15.100   1.2984   0.07759   0.06943  -0.0447  0.0019  1.0000  -4.5780   0.0000   0.0000   0.0000   0.2577
  15.200   1.2988   0.07885   0.07073  -0.0449  0.0019  1.0000  -4.6273   0.0000   0.0000   0.0000   0.2576
  15.300   1.2990   0.08016   0.07209  -0.0451  0.0019  1.0000  -4.6750   0.0000   0.0000   0.0000   0.2576
  15.400   1.2993   0.08147   0.07344  -0.0453  0.0018  1.0000  -4.7231   0.0000   0.0000   0.0000   0.2575
  15.500   1.2996   0.08277   0.07479  -0.0455  0.0018  1.0000  -4.7718   0.0000   0.0000   0.0000   0.2574
  15.600   1.2997   0.08412   0.07619  -0.0458  0.0018  1.0000  -4.8189   0.0000   0.0000   0.0000   0.2574
  15.700   1.2997   0.08549   0.07760  -0.0461  0.0018  1.0000  -4.8652   0.0000   0.0000   0.0000   0.2574
  15.800   1.2998   0.08686   0.07901  -0.0464  0.0018  1.0000  -4.9125   0.0000   0.0000   0.0000   0.2574
  15.900   1.2999   0.08824   0.08044  -0.0467  0.0018  1.0000  -4.9590   0.0000   0.0000   0.0000   0.2574
  16.000   1.2996   0.08967   0.08192  -0.0470  0.0017  1.0000  -5.0037   0.0000   0.0000   0.0000   0.2575
  16.100   1.2995   0.09110   0.08340  -0.0474  0.0017  1.0000  -5.0488   0.0000   0.0000   0.0000   0.2575
  16.200   1.2994   0.09252   0.08487  -0.0477  0.0017  1.0000  -5.0945   0.0000   0.0000   0.0000   0.2576
  16.300   1.2991   0.09399   0.08638  -0.0481  0.0017  1.0000  -5.1383   0.0000   0.0000   0.0000   0.2577
  16.400   1.2987   0.09547   0.08791  -0.0485  0.0017  1.0000  -5.1818   0.0000   0.0000   0.0000   0.2578
  16.500   1.2985   0.09693   0.08943  -0.0489  0.0017  1.0000  -5.2259   0.0000   0.0000   0.0000   0.2579
  16.600   1.2981   0.09842   0.09098  -0.0494  0.0017  1.0000  -5.2689   0.0000   0.0000   0.0000   0.2580
  16.700   1.2975   0.09995   0.09255  -0.0498  0.0016  1.0000  -5.3103   0.0000   0.0000   0.0000   0.2582
  16.800   1.2971   0.10146   0.09410  -0.0503  0.0016  1.0000  -5.3527   0.0000   0.0000   0.0000   0.2583
  16.900   1.2967   0.10297   0.09566  -0.0508  0.0016  1.0000  -5.3949   0.0000   0.0000   0.0000   0.2585
  17.000   1.2960   0.10452   0.09726  -0.0513  0.0016  1.0000  -5.4352   0.0000   0.0000   0.0000   0.2587


