xflr5 v6.59

 Calculated polar for: SF-12

 1 1 Reynolds number fixed          Mach number fixed         

 xtrf =   1.000 (top)        1.000 (bottom)
 Mach =   0.050     Re =     0.500 e 6     Ncrit =   5.000

  alpha     CL        CD       CDp       Cm    Top Xtr Bot Xtr   Cpmin    Chinge    XCp    
 ------- -------- --------- --------- -------- ------- ------- -------- --------- ---------
  -3.000   0.3160   0.01013   0.00297  -0.1283  0.6486  0.0641  -1.6032   0.0000   0.0000   0.0000   0.6616
  -2.900   0.3272   0.01009   0.00292  -0.1283  0.6469  0.0665  -1.5537   0.0000   0.0000   0.0000   0.6472
  -2.800   0.3384   0.01004   0.00288  -0.1282  0.6451  0.0685  -1.5048   0.0000   0.0000   0.0000   0.6337
  -2.700   0.3495   0.01001   0.00284  -0.1282  0.6433  0.0706  -1.4566   0.0000   0.0000   0.0000   0.6211
  -2.600   0.3607   0.00998   0.00279  -0.1282  0.6415  0.0726  -1.4088   0.0000   0.0000   0.0000   0.6093
  -2.500   0.3718   0.00994   0.00275  -0.1281  0.6398  0.0749  -1.3615   0.0000   0.0000   0.0000   0.5982
  -2.400   0.3829   0.00991   0.00271  -0.1281  0.6381  0.0773  -1.3145   0.0000   0.0000   0.0000   0.5878
  -2.300   0.3940   0.00989   0.00267  -0.1280  0.6364  0.0797  -1.2681   0.0000   0.0000   0.0000   0.5779
  -2.200   0.4051   0.00986   0.00264  -0.1280  0.6348  0.0819  -1.2220   0.0000   0.0000   0.0000   0.5686
  -2.100   0.4164   0.00982   0.00261  -0.1280  0.6331  0.0844  -1.1805   0.0000   0.0000   0.0000   0.5598
  -2.000   0.4276   0.00979   0.00258  -0.1280  0.6313  0.0871  -1.1395   0.0000   0.0000   0.0000   0.5514
  -1.900   0.4388   0.00976   0.00256  -0.1280  0.6294  0.0897  -1.0989   0.0000   0.0000   0.0000   0.5435
  -1.800   0.4500   0.00972   0.00254  -0.1279  0.6275  0.0927  -1.0585   0.0000   0.0000   0.0000   0.5359
  -1.700   0.4611   0.00970   0.00251  -0.1279  0.6255  0.0958  -1.0187   0.0000   0.0000   0.0000   0.5287
  -1.600   0.4722   0.00968   0.00248  -0.1279  0.6235  0.0987  -0.9793   0.0000   0.0000   0.0000   0.5219
  -1.500   0.4833   0.00966   0.00246  -0.1278  0.6216  0.1018  -0.9402   0.0000   0.0000   0.0000   0.5154
  -1.400   0.4943   0.00965   0.00244  -0.1278  0.6197  0.1049  -0.9015   0.0000   0.0000   0.0000   0.5091
  -1.300   0.5053   0.00963   0.00242  -0.1277  0.6178  0.1081  -0.8633   0.0000   0.0000   0.0000   0.5032
  -1.200   0.5164   0.00962   0.00240  -0.1277  0.6160  0.1118  -0.8720   0.0000   0.0000   0.0000   0.4975
  -1.100   0.5276   0.00960   0.00239  -0.1276  0.6141  0.1152  -0.8811   0.0000   0.0000   0.0000   0.4920
  -1.000   0.5388   0.00957   0.00238  -0.1276  0.6121  0.1187  -0.8901   0.0000   0.0000   0.0000   0.4868
  -0.900   0.5499   0.00956   0.00237  -0.1276  0.6099  0.1224  -0.8994   0.0000   0.0000   0.0000   0.4818
  -0.800   0.5610   0.00954   0.00236  -0.1276  0.6077  0.1259  -0.9087   0.0000   0.0000   0.0000   0.4769
  -0.700   0.5720   0.00953   0.00235  -0.1275  0.6055  0.1299  -0.9181   0.0000   0.0000   0.0000   0.4723
  -0.500   0.5939   0.00952   0.00233  -0.1274  0.6011  0.1375  -0.9372   0.0000   0.0000   0.0000   0.4635
  -0.400   0.6048   0.00952   0.00232  -0.1273  0.5990  0.1416  -0.9468   0.0000   0.0000   0.0000   0.4594
  -0.300   0.6159   0.00951   0.00232  -0.1273  0.5970  0.1455  -0.9566   0.0000   0.0000   0.0000   0.4554
  -0.200   0.6270   0.00950   0.00232  -0.1273  0.5948  0.1499  -0.9666   0.0000   0.0000   0.0000   0.4515
  -0.100   0.6381   0.00949   0.00232  -0.1272  0.5925  0.1540  -0.9767   0.0000   0.0000   0.0000   0.4478
   0.000   0.6491   0.00948   0.00233  -0.1272  0.5900  0.1583  -0.9869   0.0000   0.0000   0.0000   0.4442
   0.100   0.6600   0.00948   0.00233  -0.1271  0.5875  0.1628  -0.9970   0.0000   0.0000   0.0000   0.4407
   0.200   0.6708   0.00948   0.00233  -0.1270  0.5850  0.1671  -1.0072   0.0000   0.0000   0.0000   0.4373
   0.300   0.6816   0.00949   0.00233  -0.1270  0.5826  0.1719  -1.0177   0.0000   0.0000   0.0000   0.4340
   0.400   0.6924   0.00950   0.00233  -0.1269  0.5802  0.1763  -1.0281   0.0000   0.0000   0.0000   0.4309
   0.500   0.7033   0.00949   0.00234  -0.1268  0.5780  0.1815  -1.0387   0.0000   0.0000   0.0000   0.4278
   0.600   0.7144   0.00949   0.00235  -0.1268  0.5755  0.1863  -1.0494   0.0000   0.0000   0.0000   0.4248
   0.700   0.7253   0.00949   0.00236  -0.1267  0.5728  0.1916  -1.0603   0.0000   0.0000   0.0000   0.4219
   0.900   0.7468   0.00950   0.00239  -0.1266  0.5673  0.2024  -1.0822   0.0000   0.0000   0.0000   0.4164
   1.100   0.7680   0.00953   0.00241  -0.1263  0.5621  0.2138  -1.1040   0.0000   0.0000   0.0000   0.4111
   1.300   0.7898   0.00953   0.00245  -0.1262  0.5568  0.2265  -1.1270   0.0000   0.0000   0.0000   0.4062
   1.400   0.8005   0.00954   0.00247  -0.1262  0.5539  0.2331  -1.1385   0.0000   0.0000   0.0000   0.4038
   1.500   0.8111   0.00955   0.00249  -0.1261  0.5509  0.2403  -1.1499   0.0000   0.0000   0.0000   0.4015
   1.600   0.8216   0.00957   0.00251  -0.1259  0.5480  0.2476  -1.1615   0.0000   0.0000   0.0000   0.3992
   1.700   0.8320   0.00959   0.00254  -0.1258  0.5451  0.2555  -1.1732   0.0000   0.0000   0.0000   0.3970
   1.800   0.8425   0.00961   0.00257  -0.1257  0.5424  0.2639  -1.1850   0.0000   0.0000   0.0000   0.3949
   1.900   0.8533   0.00961   0.00259  -0.1256  0.5395  0.2730  -1.1970   0.0000   0.0000   0.0000   0.3928
   2.000   0.8639   0.00962   0.00262  -0.1255  0.5364  0.2831  -1.2089   0.0000   0.0000   0.0000   0.3907
   2.100   0.8743   0.00963   0.00265  -0.1254  0.5332  0.2942  -1.2212   0.0000   0.0000   0.0000   0.3887
   2.200   0.8846   0.00964   0.00268  -0.1252  0.5300  0.3065  -1.2333   0.0000   0.0000   0.0000   0.3867
   2.300   0.8946   0.00966   0.00271  -0.1251  0.5270  0.3214  -1.2454   0.0000   0.0000   0.0000   0.3848
   2.400   0.9050   0.00965   0.00275  -0.1249  0.5241  0.3407  -1.2576   0.0000   0.0000   0.0000   0.3830
   2.500   0.9154   0.00961   0.00279  -0.1249  0.5210  0.3699  -1.2700   0.0000   0.0000   0.0000   0.3812
   2.600   0.9249   0.00942   0.00286  -0.1247  0.5177  0.4814  -1.2822   0.0000   0.0000   0.0000   0.3795
   2.800   0.9498   0.00856   0.00304  -0.1253  0.5108  1.0000  -1.3112   0.0000   0.0000   0.0000   0.3762
   2.900   0.9597   0.00862   0.00308  -0.1250  0.5077  1.0000  -1.3238   0.0000   0.0000   0.0000   0.3745
   3.000   0.9701   0.00867   0.00311  -0.1249  0.5045  1.0000  -1.3370   0.0000   0.0000   0.0000   0.3728
   3.100   0.9803   0.00872   0.00315  -0.1247  0.5010  1.0000  -1.3503   0.0000   0.0000   0.0000   0.3712
   3.200   0.9902   0.00879   0.00320  -0.1245  0.4973  1.0000  -1.3634   0.0000   0.0000   0.0000   0.3695
   3.300   0.9998   0.00886   0.00325  -0.1242  0.4938  1.0000  -1.3763   0.0000   0.0000   0.0000   0.3679
   3.400   1.0095   0.00893   0.00329  -0.1239  0.4906  1.0000  -1.3893   0.0000   0.0000   0.0000   0.3663
   3.500   1.0197   0.00899   0.00334  -0.1238  0.4872  1.0000  -1.4030   0.0000   0.0000   0.0000   0.3648
   3.600   1.0297   0.00905   0.00338  -0.1235  0.4835  1.0000  -1.4168   0.0000   0.0000   0.0000   0.3633
   3.700   1.0393   0.00912   0.00343  -0.1233  0.4797  1.0000  -1.4304   0.0000   0.0000   0.0000   0.3618
   3.800   1.0487   0.00920   0.00349  -0.1229  0.4761  1.0000  -1.4437   0.0000   0.0000   0.0000   0.3603
   3.900   1.0583   0.00928   0.00354  -0.1227  0.4727  1.0000  -1.4573   0.0000   0.0000   0.0000   0.3588
   4.000   1.0682   0.00934   0.00359  -0.1224  0.4692  1.0000  -1.4715   0.0000   0.0000   0.0000   0.3574
   4.100   1.0778   0.00941   0.00365  -0.1222  0.4653  1.0000  -1.4857   0.0000   0.0000   0.0000   0.3560
   4.200   1.0871   0.00949   0.00371  -0.1218  0.4614  1.0000  -1.4996   0.0000   0.0000   0.0000   0.3546
   4.300   1.0959   0.00959   0.00379  -0.1214  0.4578  1.0000  -1.5132   0.0000   0.0000   0.0000   0.3531
   4.400   1.1057   0.00966   0.00385  -0.1212  0.4543  1.0000  -1.5276   0.0000   0.0000   0.0000   0.3518
   4.500   1.1152   0.00973   0.00391  -0.1209  0.4505  1.0000  -1.5421   0.0000   0.0000   0.0000   0.3505
   4.600   1.1243   0.00981   0.00397  -0.1205  0.4465  1.0000  -1.5566   0.0000   0.0000   0.0000   0.3491
   4.700   1.1330   0.00991   0.00405  -0.1201  0.4426  1.0000  -1.5707   0.0000   0.0000   0.0000   0.3478
   4.800   1.1420   0.01000   0.00412  -0.1197  0.4391  1.0000  -1.5852   0.0000   0.0000   0.0000   0.3465
   4.900   1.1513   0.01008   0.00419  -0.1194  0.4353  1.0000  -1.5999   0.0000   0.0000   0.0000   0.3452
   5.000   1.1602   0.01016   0.00426  -0.1190  0.4313  1.0000  -1.6147   0.0000   0.0000   0.0000   0.3440
   5.100   1.1686   0.01027   0.00434  -0.1185  0.4274  1.0000  -1.6293   0.0000   0.0000   0.0000   0.3427
   5.200   1.1770   0.01037   0.00442  -0.1181  0.4238  1.0000  -1.6438   0.0000   0.0000   0.0000   0.3414
   5.300   1.1860   0.01045   0.00450  -0.1177  0.4199  1.0000  -1.6590   0.0000   0.0000   0.0000   0.3402
   5.400   1.1946   0.01054   0.00458  -0.1172  0.4159  1.0000  -1.6738   0.0000   0.0000   0.0000   0.3390
   5.500   1.2027   0.01065   0.00468  -0.1167  0.4120  1.0000  -1.6885   0.0000   0.0000   0.0000   0.3377
   5.600   1.2103   0.01077   0.00477  -0.1161  0.4084  1.0000  -1.7031   0.0000   0.0000   0.0000   0.3364
   5.700   1.2190   0.01085   0.00485  -0.1157  0.4047  1.0000  -1.7188   0.0000   0.0000   0.0000   0.3353
   5.800   1.2261   0.01098   0.00495  -0.1150  0.3982  1.0000  -1.7330   0.0000   0.0000   0.0000   0.3340
   5.900   1.2312   0.01116   0.00508  -0.1139  0.3888  1.0000  -1.7453   0.0000   0.0000   0.0000   0.3326
   6.000   1.2344   0.01139   0.00523  -0.1125  0.3772  1.0000  -1.7560   0.0000   0.0000   0.0000   0.3311
   6.100   1.2373   0.01163   0.00539  -0.1110  0.3638  1.0000  -1.7668   0.0000   0.0000   0.0000   0.3295
   6.200   1.2382   0.01186   0.00555  -0.1092  0.3508  1.0000  -1.7757   0.0000   0.0000   0.0000   0.3278
   6.300   1.2377   0.01210   0.00571  -0.1071  0.3387  1.0000  -1.7832   0.0000   0.0000   0.0000   0.3260
   6.400   1.2371   0.01236   0.00590  -0.1050  0.3265  1.0000  -1.7907   0.0000   0.0000   0.0000   0.3242
   6.500   1.2370   0.01264   0.00610  -0.1030  0.3145  1.0000  -1.7985   0.0000   0.0000   0.0000   0.3225
   6.600   1.2374   0.01292   0.00631  -0.1012  0.3035  1.0000  -1.8068   0.0000   0.0000   0.0000   0.3208
   6.700   1.2398   0.01315   0.00650  -0.0997  0.2945  1.0000  -1.8170   0.0000   0.0000   0.0000   0.3193
   6.800   1.2429   0.01336   0.00667  -0.0983  0.2892  1.0000  -1.8285   0.0000   0.0000   0.0000   0.3179
   6.900   1.2469   0.01354   0.00684  -0.0972  0.2835  1.0000  -1.8409   0.0000   0.0000   0.0000   0.3166
   7.000   1.2505   0.01375   0.00703  -0.0960  0.2787  1.0000  -1.8528   0.0000   0.0000   0.0000   0.3152
   7.100   1.2546   0.01395   0.00721  -0.0948  0.2736  1.0000  -1.8652   0.0000   0.0000   0.0000   0.3139
   7.200   1.2577   0.01418   0.00742  -0.0936  0.2677  1.0000  -1.8767   0.0000   0.0000   0.0000   0.3126
   7.300   1.2604   0.01442   0.00763  -0.0923  0.2623  1.0000  -1.8878   0.0000   0.0000   0.0000   0.3112
   7.400   1.2639   0.01466   0.00784  -0.0911  0.2562  1.0000  -1.9001   0.0000   0.0000   0.0000   0.3099
   7.500   1.2664   0.01493   0.00808  -0.0898  0.2505  1.0000  -1.9114   0.0000   0.0000   0.0000   0.3086
   7.600   1.2694   0.01519   0.00832  -0.0886  0.2442  1.0000  -1.9232   0.0000   0.0000   0.0000   0.3074
   7.700   1.2714   0.01548   0.00858  -0.0873  0.2383  1.0000  -1.9341   0.0000   0.0000   0.0000   0.3061
   7.800   1.2744   0.01576   0.00883  -0.0861  0.2318  1.0000  -1.9459   0.0000   0.0000   0.0000   0.3048
   7.900   1.2765   0.01608   0.00912  -0.0849  0.2257  1.0000  -1.9566   0.0000   0.0000   0.0000   0.3036
   8.000   1.2789   0.01639   0.00940  -0.0837  0.2193  1.0000  -1.9684   0.0000   0.0000   0.0000   0.3024
   8.100   1.2811   0.01672   0.00971  -0.0825  0.2133  1.0000  -1.9799   0.0000   0.0000   0.0000   0.3012
   8.200   1.2834   0.01706   0.01002  -0.0813  0.2068  1.0000  -1.9915   0.0000   0.0000   0.0000   0.3000
   8.300   1.2854   0.01742   0.01035  -0.0802  0.2008  1.0000  -2.0027   0.0000   0.0000   0.0000   0.2988
   8.400   1.2873   0.01779   0.01069  -0.0790  0.1944  1.0000  -2.0138   0.0000   0.0000   0.0000   0.2976
   8.500   1.2897   0.01816   0.01103  -0.0779  0.1883  1.0000  -2.0254   0.0000   0.0000   0.0000   0.2965
   8.600   1.2913   0.01857   0.01141  -0.0768  0.1822  1.0000  -2.0367   0.0000   0.0000   0.0000   0.2954
   8.700   1.2928   0.01898   0.01180  -0.0756  0.1751  1.0000  -2.0479   0.0000   0.0000   0.0000   0.2943
   8.800   1.2947   0.01940   0.01219  -0.0746  0.1691  1.0000  -2.0594   0.0000   0.0000   0.0000   0.2932
   8.900   1.2965   0.01983   0.01260  -0.0735  0.1630  1.0000  -2.0709   0.0000   0.0000   0.0000   0.2921
   9.000   1.2983   0.02026   0.01301  -0.0725  0.1573  1.0000  -2.0824   0.0000   0.0000   0.0000   0.2911
   9.100   1.3001   0.02072   0.01343  -0.0715  0.1515  1.0000  -2.0941   0.0000   0.0000   0.0000   0.2901
   9.200   1.3022   0.02116   0.01385  -0.0705  0.1457  1.0000  -2.1067   0.0000   0.0000   0.0000   0.2891
   9.300   1.3019   0.02174   0.01439  -0.0693  0.1373  1.0000  -2.1160   0.0000   0.0000   0.0000   0.2880
   9.400   1.2998   0.02245   0.01503  -0.0680  0.1260  1.0000  -2.1230   0.0000   0.0000   0.0000   0.2869
   9.500   1.2960   0.02326   0.01577  -0.0665  0.1132  1.0000  -2.1281   0.0000   0.0000   0.0000   0.2857
   9.600   1.2865   0.02445   0.01683  -0.0646  0.0919  1.0000  -2.1270   0.0000   0.0000   0.0000   0.2844
   9.700   1.2764   0.02573   0.01798  -0.0627  0.0710  1.0000  -2.1354   0.0000   0.0000   0.0000   0.2831
   9.800   1.2665   0.02705   0.01917  -0.0609  0.0504  1.0000  -2.1278   0.0000   0.0000   0.0000   0.2819
   9.900   1.2569   0.02840   0.02042  -0.0592  0.0309  1.0000  -2.1060   0.0000   0.0000   0.0000   0.2808
  10.000   1.2482   0.02974   0.02168  -0.0577  0.0128  1.0000  -2.0983   0.0000   0.0000   0.0000   0.2797
  10.100   1.2443   0.03076   0.02268  -0.0566  0.0020  1.0000  -2.1025   0.0000   0.0000   0.0000   0.2787
  10.200   1.2474   0.03128   0.02321  -0.0560  0.0014  1.0000  -2.1169   0.0000   0.0000   0.0000   0.2780
  10.300   1.2511   0.03177   0.02371  -0.0555  0.0012  1.0000  -2.1323   0.0000   0.0000   0.0000   0.2773
  10.400   1.2547   0.03226   0.02422  -0.0550  0.0011  1.0000  -2.1484   0.0000   0.0000   0.0000   0.2766
  10.500   1.2585   0.03275   0.02473  -0.0545  0.0010  1.0000  -2.1993   0.0000   0.0000   0.0000   0.2759
  10.600   1.2624   0.03324   0.02523  -0.0541  0.0010  1.0000  -2.2594   0.0000   0.0000   0.0000   0.2752
  10.700   1.2662   0.03373   0.02574  -0.0536  0.0010  1.0000  -2.3210   0.0000   0.0000   0.0000   0.2745
  10.800   1.2699   0.03425   0.02627  -0.0532  0.0010  1.0000  -2.3822   0.0000   0.0000   0.0000   0.2738
  10.900   1.2734   0.03478   0.02682  -0.0527  0.0009  1.0000  -2.4429   0.0000   0.0000   0.0000   0.2732
  11.000   1.2769   0.03532   0.02739  -0.0523  0.0009  1.0000  -2.5052   0.0000   0.0000   0.0000   0.2725
  11.100   1.2804   0.03586   0.02795  -0.0518  0.0009  1.0000  -2.5672   0.0000   0.0000   0.0000   0.2719
  11.200   1.2840   0.03640   0.02851  -0.0514  0.0009  1.0000  -2.6297   0.0000   0.0000   0.0000   0.2713
  11.300   1.2874   0.03696   0.02909  -0.0510  0.0009  1.0000  -2.6918   0.0000   0.0000   0.0000   0.2707
  11.400   1.2905   0.03754   0.02969  -0.0506  0.0009  1.0000  -2.7532   0.0000   0.0000   0.0000   0.2700
  11.500   1.2937   0.03814   0.03031  -0.0502  0.0009  1.0000  -2.8150   0.0000   0.0000   0.0000   0.2694
  11.600   1.2969   0.03873   0.03092  -0.0498  0.0009  1.0000  -2.8776   0.0000   0.0000   0.0000   0.2689
  11.700   1.3001   0.03932   0.03154  -0.0494  0.0009  1.0000  -2.9409   0.0000   0.0000   0.0000   0.2683
  11.800   1.3033   0.03993   0.03217  -0.0490  0.0009  1.0000  -3.0040   0.0000   0.0000   0.0000   0.2677
  11.900   1.3061   0.04058   0.03284  -0.0486  0.0009  1.0000  -3.0667   0.0000   0.0000   0.0000   0.2671
  12.000   1.3088   0.04124   0.03352  -0.0483  0.0009  1.0000  -3.1311   0.0000   0.0000   0.0000   0.2666
  12.100   1.3117   0.04189   0.03420  -0.0479  0.0008  1.0000  -3.1965   0.0000   0.0000   0.0000   0.2660
  12.200   1.3147   0.04255   0.03488  -0.0476  0.0008  1.0000  -3.2625   0.0000   0.0000   0.0000   0.2655
  12.300   1.3175   0.04322   0.03558  -0.0472  0.0008  1.0000  -3.3280   0.0000   0.0000   0.0000   0.2650
  12.400   1.3199   0.04393   0.03632  -0.0469  0.0008  1.0000  -3.3920   0.0000   0.0000   0.0000   0.2645
  12.500   1.3224   0.04465   0.03707  -0.0466  0.0008  1.0000  -3.4569   0.0000   0.0000   0.0000   0.2640
  12.600   1.3249   0.04537   0.03782  -0.0463  0.0008  1.0000  -3.5222   0.0000   0.0000   0.0000   0.2635
  12.700   1.3275   0.04609   0.03856  -0.0460  0.0008  1.0000  -3.5877   0.0000   0.0000   0.0000   0.2630
  12.800   1.3298   0.04684   0.03934  -0.0457  0.0008  1.0000  -3.6525   0.0000   0.0000   0.0000   0.2625
  12.900   1.3319   0.04763   0.04016  -0.0455  0.0008  1.0000  -3.7159   0.0000   0.0000   0.0000   0.2620
  13.000   1.3340   0.04842   0.04098  -0.0452  0.0008  1.0000  -3.7798   0.0000   0.0000   0.0000   0.2616
  13.100   1.3362   0.04921   0.04179  -0.0449  0.0008  1.0000  -3.8446   0.0000   0.0000   0.0000   0.2611
  13.200   1.3384   0.05000   0.04261  -0.0447  0.0008  1.0000  -3.9097   0.0000   0.0000   0.0000   0.2607
  13.300   1.3403   0.05085   0.04349  -0.0445  0.0008  1.0000  -3.9728   0.0000   0.0000   0.0000   0.2603
  13.400   1.3419   0.05172   0.04439  -0.0443  0.0008  1.0000  -4.0350   0.0000   0.0000   0.0000   0.2599
  13.500   1.3437   0.05258   0.04529  -0.0441  0.0008  1.0000  -4.0983   0.0000   0.0000   0.0000   0.2595
  13.600   1.3456   0.05344   0.04618  -0.0439  0.0008  1.0000  -4.1624   0.0000   0.0000   0.0000   0.2591
  13.700   1.3473   0.05433   0.04710  -0.0437  0.0008  1.0000  -4.2255   0.0000   0.0000   0.0000   0.2587
  13.800   1.3486   0.05527   0.04807  -0.0435  0.0008  1.0000  -4.2864   0.0000   0.0000   0.0000   0.2583
  13.900   1.3499   0.05622   0.04905  -0.0434  0.0008  1.0000  -4.3480   0.0000   0.0000   0.0000   0.2580
  14.000   1.3514   0.05716   0.05002  -0.0433  0.0008  1.0000  -4.4105   0.0000   0.0000   0.0000   0.2576
  14.100   1.3528   0.05811   0.05100  -0.0431  0.0008  1.0000  -4.4726   0.0000   0.0000   0.0000   0.2573
  14.200   1.3538   0.05913   0.05207  -0.0431  0.0008  1.0000  -4.5319   0.0000   0.0000   0.0000   0.2570
  14.300   1.3548   0.06016   0.05313  -0.0430  0.0008  1.0000  -4.5921   0.0000   0.0000   0.0000   0.2567
  14.400   1.3560   0.06117   0.05418  -0.0429  0.0008  1.0000  -4.6531   0.0000   0.0000   0.0000   0.2564
  14.500   1.3570   0.06220   0.05524  -0.0428  0.0008  1.0000  -4.7140   0.0000   0.0000   0.0000   0.2561
  14.600   1.3577   0.06331   0.05638  -0.0428  0.0008  1.0000  -4.7720   0.0000   0.0000   0.0000   0.2559
  14.700   1.3583   0.06442   0.05752  -0.0428  0.0008  1.0000  -4.8302   0.0000   0.0000   0.0000   0.2556
  14.800   1.3591   0.06551   0.05865  -0.0428  0.0008  1.0000  -4.8892   0.0000   0.0000   0.0000   0.2554
  14.900   1.3598   0.06663   0.05981  -0.0428  0.0008  1.0000  -4.9479   0.0000   0.0000   0.0000   0.2551
  15.000   1.3601   0.06782   0.06103  -0.0428  0.0008  1.0000  -5.0039   0.0000   0.0000   0.0000   0.2549


