xflr5 v6.59

 Calculated polar for: SF-15

 1 1 Reynolds number fixed          Mach number fixed         

 xtrf =   1.000 (top)        1.000 (bottom)
 Mach =   0.050     Re =     0.230 e 6     Ncrit =   5.000

  alpha     CL        CD       CDp       Cm    Top Xtr Bot Xtr   Cpmin    Chinge    XCp    
 ------- -------- --------- --------- -------- ------- ------- -------- --------- ---------
  -3.000   0.5192   0.01340   0.00586  -0.1828  0.7302  0.0409  -1.9323   0.0000   0.0000   0.0000   0.6061
  -2.900   0.5306   0.01327   0.00566  -0.1828  0.7275  0.0423  -1.8715   0.0000   0.0000   0.0000   0.5983
  -2.800   0.5421   0.01314   0.00547  -0.1828  0.7249  0.0437  -1.8096   0.0000   0.0000   0.0000   0.5908
  -2.700   0.5534   0.01306   0.00537  -0.1829  0.7222  0.0453  -1.7413   0.0000   0.0000   0.0000   0.5837
  -2.600   0.5643   0.01298   0.00529  -0.1828  0.7191  0.0473  -1.6768   0.0000   0.0000   0.0000   0.5770
  -2.500   0.5754   0.01290   0.00515  -0.1828  0.7159  0.0494  -1.6158   0.0000   0.0000   0.0000   0.5705
  -2.400   0.5866   0.01280   0.00505  -0.1828  0.7128  0.0512  -1.5518   0.0000   0.0000   0.0000   0.5643
  -2.300   0.5978   0.01272   0.00495  -0.1828  0.7099  0.0531  -1.4887   0.0000   0.0000   0.0000   0.5582
  -2.200   0.6091   0.01265   0.00483  -0.1828  0.7071  0.0553  -1.4278   0.0000   0.0000   0.0000   0.5523
  -2.100   0.6205   0.01257   0.00471  -0.1828  0.7045  0.0576  -1.3656   0.0000   0.0000   0.0000   0.5466
  -2.000   0.6316   0.01252   0.00465  -0.1828  0.7016  0.0604  -1.3033   0.0000   0.0000   0.0000   0.5412
  -1.900   0.6425   0.01247   0.00457  -0.1827  0.6984  0.0636  -1.2438   0.0000   0.0000   0.0000   0.5360
  -1.800   0.6536   0.01240   0.00452  -0.1827  0.6953  0.0665  -1.1890   0.0000   0.0000   0.0000   0.5310
  -1.700   0.6647   0.01235   0.00444  -0.1827  0.6922  0.0699  -1.1375   0.0000   0.0000   0.0000   0.5261
  -1.600   0.6759   0.01230   0.00437  -0.1827  0.6893  0.0732  -1.0854   0.0000   0.0000   0.0000   0.5213
  -1.500   0.6871   0.01227   0.00430  -0.1827  0.6866  0.0775  -1.0335   0.0000   0.0000   0.0000   0.5167
  -1.400   0.6982   0.01222   0.00425  -0.1827  0.6838  0.0818  -0.9818   0.0000   0.0000   0.0000   0.5123
  -1.300   0.7091   0.01219   0.00420  -0.1826  0.6806  0.0867  -0.9320   0.0000   0.0000   0.0000   0.5080
  -1.200   0.7200   0.01215   0.00417  -0.1826  0.6775  0.0916  -0.9402   0.0000   0.0000   0.0000   0.5039
  -1.100   0.7310   0.01211   0.00414  -0.1825  0.6744  0.0973  -0.9493   0.0000   0.0000   0.0000   0.4999
  -1.000   0.7420   0.01209   0.00409  -0.1825  0.6713  0.1038  -0.9585   0.0000   0.0000   0.0000   0.4959
  -0.900   0.7531   0.01206   0.00404  -0.1824  0.6685  0.1106  -0.9680   0.0000   0.0000   0.0000   0.4921
  -0.800   0.7642   0.01204   0.00401  -0.1824  0.6658  0.1183  -0.9776   0.0000   0.0000   0.0000   0.4884
  -0.700   0.7750   0.01201   0.00401  -0.1824  0.6627  0.1269  -0.9869   0.0000   0.0000   0.0000   0.4849
  -0.600   0.7858   0.01198   0.00400  -0.1823  0.6595  0.1363  -0.9964   0.0000   0.0000   0.0000   0.4814
  -0.500   0.7967   0.01196   0.00398  -0.1823  0.6563  0.1472  -1.0063   0.0000   0.0000   0.0000   0.4780
  -0.400   0.8076   0.01194   0.00397  -0.1822  0.6532  0.1596  -1.0162   0.0000   0.0000   0.0000   0.4747
  -0.300   0.8185   0.01193   0.00396  -0.1822  0.6504  0.1732  -1.0261   0.0000   0.0000   0.0000   0.4715
  -0.200   0.8295   0.01191   0.00396  -0.1821  0.6476  0.1885  -1.0364   0.0000   0.0000   0.0000   0.4684
  -0.100   0.8402   0.01189   0.00398  -0.1821  0.6444  0.2057  -1.0465   0.0000   0.0000   0.0000   0.4653
   0.000   0.8509   0.01187   0.00399  -0.1820  0.6412  0.2240  -1.0567   0.0000   0.0000   0.0000   0.4624
   0.100   0.8616   0.01185   0.00401  -0.1820  0.6380  0.2441  -1.0671   0.0000   0.0000   0.0000   0.4595
   0.200   0.8724   0.01184   0.00401  -0.1819  0.6349  0.2663  -1.0778   0.0000   0.0000   0.0000   0.4567
   0.300   0.8832   0.01183   0.00403  -0.1818  0.6321  0.2898  -1.0885   0.0000   0.0000   0.0000   0.4539
   0.400   0.8939   0.01181   0.00405  -0.1818  0.6292  0.3148  -1.0992   0.0000   0.0000   0.0000   0.4512
   0.500   0.9045   0.01179   0.00410  -0.1817  0.6259  0.3415  -1.1102   0.0000   0.0000   0.0000   0.4486
   0.600   0.9150   0.01177   0.00414  -0.1816  0.6226  0.3702  -1.1212   0.0000   0.0000   0.0000   0.4461
   0.700   0.9255   0.01175   0.00417  -0.1815  0.6194  0.4009  -1.1322   0.0000   0.0000   0.0000   0.4436
   0.800   0.9360   0.01174   0.00421  -0.1814  0.6164  0.4341  -1.1435   0.0000   0.0000   0.0000   0.4411
   0.900   0.9464   0.01173   0.00425  -0.1812  0.6136  0.4695  -1.1550   0.0000   0.0000   0.0000   0.4387
   1.000   0.9567   0.01170   0.00431  -0.1811  0.6105  0.5074  -1.1663   0.0000   0.0000   0.0000   0.4363
   1.100   0.9668   0.01167   0.00437  -0.1809  0.6072  0.5476  -1.1777   0.0000   0.0000   0.0000   0.4340
   1.200   0.9767   0.01164   0.00443  -0.1806  0.6039  0.5904  -1.1893   0.0000   0.0000   0.0000   0.4317
   1.300   0.9863   0.01160   0.00447  -0.1803  0.6008  0.6364  -1.2007   0.0000   0.0000   0.0000   0.4294
   1.400   0.9958   0.01155   0.00450  -0.1799  0.5979  0.6861  -1.2121   0.0000   0.0000   0.0000   0.4271
   1.500   1.0043   0.01144   0.00451  -0.1792  0.5952  0.7524  -1.2231   0.0000   0.0000   0.0000   0.4248
   1.700   1.0232   0.01123   0.00450  -0.1783  0.5886  1.0000  -1.2468   0.0000   0.0000   0.0000   0.4203
   1.800   1.0336   0.01130   0.00453  -0.1782  0.5853  1.0000  -1.2593   0.0000   0.0000   0.0000   0.4183
   1.900   1.0439   0.01138   0.00455  -0.1780  0.5822  1.0000  -1.2723   0.0000   0.0000   0.0000   0.4163
   2.000   1.0543   0.01146   0.00457  -0.1778  0.5793  1.0000  -1.2855   0.0000   0.0000   0.0000   0.4143
   2.100   1.0646   0.01152   0.00462  -0.1777  0.5760  1.0000  -1.2984   0.0000   0.0000   0.0000   0.4124
   2.200   1.0748   0.01158   0.00466  -0.1775  0.5727  1.0000  -1.3114   0.0000   0.0000   0.0000   0.4105
   2.300   1.0850   0.01166   0.00470  -0.1773  0.5693  1.0000  -1.3250   0.0000   0.0000   0.0000   0.4086
   2.400   1.0952   0.01173   0.00474  -0.1771  0.5661  1.0000  -1.3385   0.0000   0.0000   0.0000   0.4068
   2.500   1.1053   0.01182   0.00477  -0.1769  0.5632  1.0000  -1.3522   0.0000   0.0000   0.0000   0.4050
   2.600   1.1155   0.01189   0.00482  -0.1767  0.5599  1.0000  -1.3658   0.0000   0.0000   0.0000   0.4032
   2.700   1.1255   0.01196   0.00488  -0.1765  0.5565  1.0000  -1.3799   0.0000   0.0000   0.0000   0.4015
   2.800   1.1355   0.01203   0.00493  -0.1763  0.5530  1.0000  -1.3940   0.0000   0.0000   0.0000   0.3998
   2.900   1.1454   0.01212   0.00498  -0.1761  0.5498  1.0000  -1.4081   0.0000   0.0000   0.0000   0.3981
   3.000   1.1554   0.01221   0.00502  -0.1758  0.5468  1.0000  -1.4222   0.0000   0.0000   0.0000   0.3964
   3.100   1.1653   0.01228   0.00511  -0.1756  0.5434  1.0000  -1.4368   0.0000   0.0000   0.0000   0.3948
   3.200   1.1752   0.01236   0.00517  -0.1754  0.5399  1.0000  -1.4515   0.0000   0.0000   0.0000   0.3932
   3.300   1.1849   0.01244   0.00523  -0.1751  0.5364  1.0000  -1.4662   0.0000   0.0000   0.0000   0.3916
   3.400   1.1946   0.01253   0.00529  -0.1749  0.5331  1.0000  -1.4809   0.0000   0.0000   0.0000   0.3900
   3.500   1.2043   0.01263   0.00535  -0.1746  0.5301  1.0000  -1.4957   0.0000   0.0000   0.0000   0.3885
   3.600   1.2140   0.01270   0.00543  -0.1743  0.5265  1.0000  -1.5111   0.0000   0.0000   0.0000   0.3870
   3.700   1.2236   0.01278   0.00550  -0.1741  0.5229  1.0000  -1.5264   0.0000   0.0000   0.0000   0.3855
   3.800   1.2331   0.01287   0.00557  -0.1738  0.5194  1.0000  -1.5417   0.0000   0.0000   0.0000   0.3840
   3.900   1.2425   0.01297   0.00564  -0.1734  0.5161  1.0000  -1.5569   0.0000   0.0000   0.0000   0.3825
   4.000   1.2520   0.01307   0.00571  -0.1731  0.5128  1.0000  -1.5722   0.0000   0.0000   0.0000   0.3811
   4.100   1.2614   0.01315   0.00582  -0.1728  0.5092  1.0000  -1.5882   0.0000   0.0000   0.0000   0.3796
   4.200   1.2707   0.01324   0.00590  -0.1725  0.5055  1.0000  -1.6041   0.0000   0.0000   0.0000   0.3782
   4.300   1.2799   0.01334   0.00597  -0.1722  0.5019  1.0000  -1.6199   0.0000   0.0000   0.0000   0.3768
   4.500   1.2982   0.01354   0.00615  -0.1715  0.4950  1.0000  -1.6517   0.0000   0.0000   0.0000   0.3741
   4.600   1.3073   0.01363   0.00624  -0.1711  0.4912  1.0000  -1.6676   0.0000   0.0000   0.0000   0.3728
   4.700   1.3162   0.01374   0.00632  -0.1707  0.4875  1.0000  -1.6839   0.0000   0.0000   0.0000   0.3714
   4.800   1.3249   0.01385   0.00641  -0.1703  0.4841  1.0000  -1.7002   0.0000   0.0000   0.0000   0.3701
   4.900   1.3339   0.01395   0.00651  -0.1699  0.4805  1.0000  -1.7168   0.0000   0.0000   0.0000   0.3688
   5.000   1.3427   0.01405   0.00661  -0.1695  0.4766  1.0000  -1.7332   0.0000   0.0000   0.0000   0.3675
   5.100   1.3513   0.01416   0.00671  -0.1690  0.4728  1.0000  -1.7495   0.0000   0.0000   0.0000   0.3662
   5.200   1.3596   0.01428   0.00681  -0.1685  0.4693  1.0000  -1.7657   0.0000   0.0000   0.0000   0.3649
   5.300   1.3682   0.01439   0.00694  -0.1681  0.4656  1.0000  -1.7820   0.0000   0.0000   0.0000   0.3637
   5.400   1.3767   0.01450   0.00705  -0.1676  0.4617  1.0000  -1.7988   0.0000   0.0000   0.0000   0.3624
   5.500   1.3849   0.01461   0.00716  -0.1671  0.4577  1.0000  -1.8155   0.0000   0.0000   0.0000   0.3612
   5.600   1.3927   0.01475   0.00727  -0.1665  0.4541  1.0000  -1.8321   0.0000   0.0000   0.0000   0.3599
   5.700   1.4010   0.01486   0.00739  -0.1660  0.4504  1.0000  -1.8490   0.0000   0.0000   0.0000   0.3587
   5.800   1.4091   0.01497   0.00751  -0.1655  0.4464  1.0000  -1.8658   0.0000   0.0000   0.0000   0.3575
   5.900   1.4168   0.01510   0.00763  -0.1649  0.4424  1.0000  -1.8822   0.0000   0.0000   0.0000   0.3563
   6.000   1.4240   0.01525   0.00775  -0.1642  0.4387  1.0000  -1.8982   0.0000   0.0000   0.0000   0.3550
   6.100   1.4319   0.01536   0.00788  -0.1637  0.4347  1.0000  -1.9149   0.0000   0.0000   0.0000   0.3539
   6.200   1.4395   0.01549   0.00801  -0.1630  0.4307  1.0000  -1.9312   0.0000   0.0000   0.0000   0.3527
   6.300   1.4465   0.01563   0.00814  -0.1623  0.4268  1.0000  -1.9477   0.0000   0.0000   0.0000   0.3515
   6.400   1.4533   0.01578   0.00827  -0.1616  0.4232  1.0000  -1.9641   0.0000   0.0000   0.0000   0.3503
   6.500   1.4606   0.01591   0.00843  -0.1609  0.4190  1.0000  -1.9811   0.0000   0.0000   0.0000   0.3491
   6.600   1.4669   0.01604   0.00857  -0.1601  0.4149  1.0000  -1.9970   0.0000   0.0000   0.0000   0.3479
   6.800   1.4741   0.01639   0.00886  -0.1573  0.4014  1.0000  -2.0234   0.0000   0.0000   0.0000   0.3452
   6.900   1.4755   0.01661   0.00903  -0.1556  0.3927  1.0000  -2.0344   0.0000   0.0000   0.0000   0.3438
   7.000   1.4764   0.01687   0.00922  -0.1538  0.3823  1.0000  -2.0447   0.0000   0.0000   0.0000   0.3423
   7.100   1.4773   0.01714   0.00943  -0.1521  0.3706  1.0000  -2.0550   0.0000   0.0000   0.0000   0.3409
   7.200   1.4775   0.01744   0.00966  -0.1502  0.3587  1.0000  -2.0646   0.0000   0.0000   0.0000   0.3395
   7.300   1.4772   0.01778   0.00993  -0.1483  0.3468  1.0000  -2.0736   0.0000   0.0000   0.0000   0.3381
   7.400   1.4769   0.01813   0.01021  -0.1465  0.3348  1.0000  -2.0825   0.0000   0.0000   0.0000   0.3367
   7.500   1.4770   0.01851   0.01050  -0.1448  0.3231  1.0000  -2.0918   0.0000   0.0000   0.0000   0.3354
   7.600   1.4772   0.01889   0.01082  -0.1431  0.3127  1.0000  -2.1011   0.0000   0.0000   0.0000   0.3340
   7.700   1.4791   0.01922   0.01111  -0.1417  0.3038  1.0000  -2.1129   0.0000   0.0000   0.0000   0.3328
   7.800   1.4827   0.01951   0.01138  -0.1406  0.2981  1.0000  -2.1266   0.0000   0.0000   0.0000   0.3317
   7.900   1.4866   0.01980   0.01165  -0.1396  0.2924  1.0000  -2.1407   0.0000   0.0000   0.0000   0.3306
   8.000   1.4898   0.02011   0.01195  -0.1384  0.2872  1.0000  -2.1539   0.0000   0.0000   0.0000   0.3294
   8.100   1.4935   0.02042   0.01226  -0.1374  0.2810  1.0000  -2.1677   0.0000   0.0000   0.0000   0.3283
   8.200   1.4963   0.02076   0.01258  -0.1362  0.2758  1.0000  -2.1804   0.0000   0.0000   0.0000   0.3272
   8.300   1.5002   0.02107   0.01288  -0.1352  0.2703  1.0000  -2.1945   0.0000   0.0000   0.0000   0.3261
   8.400   1.5036   0.02141   0.01321  -0.1342  0.2651  1.0000  -2.2079   0.0000   0.0000   0.0000   0.3251
   8.500   1.5072   0.02174   0.01354  -0.1332  0.2602  1.0000  -2.2220   0.0000   0.0000   0.0000   0.3240
   8.600   1.5108   0.02208   0.01388  -0.1322  0.2552  1.0000  -2.2909   0.0000   0.0000   0.0000   0.3230
   8.800   1.5176   0.02280   0.01458  -0.1302  0.2458  1.0000  -2.4282   0.0000   0.0000   0.0000   0.3209
   8.900   1.5209   0.02317   0.01495  -0.1292  0.2411  1.0000  -2.4968   0.0000   0.0000   0.0000   0.3199
   9.000   1.5241   0.02356   0.01534  -0.1283  0.2368  1.0000  -2.5654   0.0000   0.0000   0.0000   0.3190
   9.100   1.5278   0.02393   0.01571  -0.1274  0.2322  1.0000  -2.6360   0.0000   0.0000   0.0000   0.3180
   9.200   1.5289   0.02444   0.01619  -0.1262  0.2256  1.0000  -2.6944   0.0000   0.0000   0.0000   0.3170
   9.300   1.5293   0.02501   0.01672  -0.1250  0.2162  1.0000  -2.7495   0.0000   0.0000   0.0000   0.3160
   9.400   1.5285   0.02567   0.01732  -0.1236  0.2056  1.0000  -2.7987   0.0000   0.0000   0.0000   0.3150
   9.500   1.5270   0.02638   0.01796  -0.1223  0.1944  1.0000  -2.8447   0.0000   0.0000   0.0000   0.3140
   9.600   1.5256   0.02712   0.01863  -0.1210  0.1833  1.0000  -2.8909   0.0000   0.0000   0.0000   0.3130
   9.700   1.5254   0.02781   0.01929  -0.1198  0.1740  1.0000  -2.9443   0.0000   0.0000   0.0000   0.3121
   9.800   1.5264   0.02842   0.01988  -0.1188  0.1677  1.0000  -3.0025   0.0000   0.0000   0.0000   0.3112
   9.900   1.5281   0.02900   0.02045  -0.1179  0.1615  1.0000  -3.0634   0.0000   0.0000   0.0000   0.3103
  10.000   1.5296   0.02961   0.02104  -0.1170  0.1554  1.0000  -3.1233   0.0000   0.0000   0.0000   0.3095
  10.100   1.5306   0.03026   0.02167  -0.1161  0.1494  1.0000  -3.1807   0.0000   0.0000   0.0000   0.3086
  10.200   1.5320   0.03090   0.02230  -0.1152  0.1433  1.0000  -3.2397   0.0000   0.0000   0.0000   0.3078
  10.300   1.5330   0.03158   0.02297  -0.1143  0.1373  1.0000  -3.2966   0.0000   0.0000   0.0000   0.3070
  10.400   1.5336   0.03230   0.02367  -0.1135  0.1304  1.0000  -3.3513   0.0000   0.0000   0.0000   0.3062
  10.500   1.5317   0.03324   0.02455  -0.1124  0.1201  1.0000  -3.3927   0.0000   0.0000   0.0000   0.3054
  10.600   1.5266   0.03445   0.02566  -0.1112  0.1048  1.0000  -3.4184   0.0000   0.0000   0.0000   0.3047
  10.700   1.5166   0.03613   0.02717  -0.1097  0.0831  1.0000  -3.4176   0.0000   0.0000   0.0000   0.3040
  10.800   1.5064   0.03788   0.02878  -0.1083  0.0629  1.0000  -3.4158   0.0000   0.0000   0.0000   0.3034
  10.900   1.4966   0.03968   0.03046  -0.1070  0.0447  1.0000  -3.4142   0.0000   0.0000   0.0000   0.3028
  11.000   1.4871   0.04151   0.03219  -0.1059  0.0283  1.0000  -3.4135   0.0000   0.0000   0.0000   0.3023
  11.100   1.4784   0.04334   0.03395  -0.1049  0.0134  1.0000  -3.4160   0.0000   0.0000   0.0000   0.3018
  11.200   1.4725   0.04494   0.03552  -0.1041  0.0042  1.0000  -3.4337   0.0000   0.0000   0.0000   0.3013
  11.300   1.4728   0.04594   0.03654  -0.1036  0.0032  1.0000  -3.4852   0.0000   0.0000   0.0000   0.3008
  11.400   1.4740   0.04686   0.03749  -0.1031  0.0027  1.0000  -3.5423   0.0000   0.0000   0.0000   0.3002
  11.500   1.4760   0.04769   0.03837  -0.1027  0.0025  1.0000  -3.6038   0.0000   0.0000   0.0000   0.2997
  11.600   1.4782   0.04853   0.03924  -0.1024  0.0024  1.0000  -3.6669   0.0000   0.0000   0.0000   0.2991
  11.700   1.4802   0.04938   0.04015  -0.1020  0.0023  1.0000  -3.7298   0.0000   0.0000   0.0000   0.2986
  11.800   1.4822   0.05026   0.04107  -0.1017  0.0023  1.0000  -3.7928   0.0000   0.0000   0.0000   0.2981
  11.900   1.4842   0.05114   0.04199  -0.1014  0.0022  1.0000  -3.8564   0.0000   0.0000   0.0000   0.2975
  12.000   1.4861   0.05205   0.04296  -0.1011  0.0021  1.0000  -3.9188   0.0000   0.0000   0.0000   0.2970
  12.100   1.4877   0.05300   0.04395  -0.1008  0.0021  1.0000  -3.9808   0.0000   0.0000   0.0000   0.2966
  12.200   1.4894   0.05395   0.04496  -0.1005  0.0021  1.0000  -4.0433   0.0000   0.0000   0.0000   0.2961
  12.300   1.4911   0.05492   0.04597  -0.1002  0.0020  1.0000  -4.1062   0.0000   0.0000   0.0000   0.2956
  12.400   1.4925   0.05592   0.04703  -0.1000  0.0020  1.0000  -4.1682   0.0000   0.0000   0.0000   0.2952
  12.500   1.4939   0.05695   0.04810  -0.0998  0.0020  1.0000  -4.2301   0.0000   0.0000   0.0000   0.2948
  12.600   1.4953   0.05798   0.04919  -0.0996  0.0019  1.0000  -4.2921   0.0000   0.0000   0.0000   0.2944
  12.700   1.4964   0.05906   0.05032  -0.0994  0.0019  1.0000  -4.3530   0.0000   0.0000   0.0000   0.2940
  12.800   1.4975   0.06017   0.05147  -0.0992  0.0019  1.0000  -4.4136   0.0000   0.0000   0.0000   0.2936
  12.900   1.4985   0.06128   0.05263  -0.0991  0.0019  1.0000  -4.4747   0.0000   0.0000   0.0000   0.2933
  13.000   1.4994   0.06243   0.05384  -0.0990  0.0018  1.0000  -4.5347   0.0000   0.0000   0.0000   0.2930
  13.100   1.5002   0.06361   0.05507  -0.0989  0.0018  1.0000  -4.5942   0.0000   0.0000   0.0000   0.2926
  13.200   1.5010   0.06480   0.05632  -0.0988  0.0018  1.0000  -4.6537   0.0000   0.0000   0.0000   0.2923
  13.300   1.5015   0.06603   0.05761  -0.0987  0.0018  1.0000  -4.7120   0.0000   0.0000   0.0000   0.2921
  13.400   1.5020   0.06730   0.05893  -0.0987  0.0018  1.0000  -4.7697   0.0000   0.0000   0.0000   0.2918
  13.500   1.5024   0.06857   0.06025  -0.0987  0.0017  1.0000  -4.8278   0.0000   0.0000   0.0000   0.2915
  13.600   1.5027   0.06988   0.06163  -0.0987  0.0017  1.0000  -4.8845   0.0000   0.0000   0.0000   0.2913
  13.700   1.5029   0.07123   0.06303  -0.0987  0.0017  1.0000  -4.9406   0.0000   0.0000   0.0000   0.2911
  13.800   1.5030   0.07259   0.06445  -0.0988  0.0017  1.0000  -4.9969   0.0000   0.0000   0.0000   0.2909
  13.900   1.5029   0.07400   0.06593  -0.0989  0.0017  1.0000  -5.0513   0.0000   0.0000   0.0000   0.2908
  14.000   1.5028   0.07543   0.06741  -0.0990  0.0017  1.0000  -5.1054   0.0000   0.0000   0.0000   0.2906
  14.100   1.5026   0.07687   0.06891  -0.0991  0.0017  1.0000  -5.1595   0.0000   0.0000   0.0000   0.2905
  14.200   1.5023   0.07837   0.07047  -0.0993  0.0017  1.0000  -5.2119   0.0000   0.0000   0.0000   0.2904
  14.300   1.5019   0.07988   0.07203  -0.0995  0.0017  1.0000  -5.2640   0.0000   0.0000   0.0000   0.2903
  14.400   1.5014   0.08142   0.07363  -0.0997  0.0016  1.0000  -5.3154   0.0000   0.0000   0.0000   0.2903
  14.500   1.5007   0.08300   0.07527  -0.0999  0.0016  1.0000  -5.3652   0.0000   0.0000   0.0000   0.2902
  14.600   1.5001   0.08458   0.07691  -0.1002  0.0016  1.0000  -5.4154   0.0000   0.0000   0.0000   0.2902
  14.700   1.4994   0.08620   0.07860  -0.1005  0.0016  1.0000  -5.4642   0.0000   0.0000   0.0000   0.2902
  14.800   1.4985   0.08785   0.08030  -0.1008  0.0016  1.0000  -5.5122   0.0000   0.0000   0.0000   0.2902
  14.900   1.4976   0.08951   0.08202  -0.1011  0.0016  1.0000  -5.5599   0.0000   0.0000   0.0000   0.2903
  15.000   1.4965   0.09122   0.08379  -0.1015  0.0016  1.0000  -5.6057   0.0000   0.0000   0.0000   0.2903
  15.100   1.4955   0.09293   0.08556  -0.1019  0.0016  1.0000  -5.6514   0.0000   0.0000   0.0000   0.2904
  15.200   1.4944   0.09466   0.08735  -0.1023  0.0016  1.0000  -5.6964   0.0000   0.0000   0.0000   0.2905
  15.300   1.4931   0.09642   0.08917  -0.1028  0.0016  1.0000  -5.7401   0.0000   0.0000   0.0000   0.2907
  15.400   1.4919   0.09818   0.09099  -0.1032  0.0016  1.0000  -5.7839   0.0000   0.0000   0.0000   0.2908
  15.500   1.4905   0.09998   0.09285  -0.1037  0.0016  1.0000  -5.8254   0.0000   0.0000   0.0000   0.2910
  15.600   1.4891   0.10178   0.09471  -0.1043  0.0016  1.0000  -5.8670   0.0000   0.0000   0.0000   0.2912
  15.700   1.4877   0.10359   0.09658  -0.1048  0.0016  1.0000  -5.9076   0.0000   0.0000   0.0000   0.2914
  15.800   1.4862   0.10542   0.09847  -0.1054  0.0016  1.0000  -5.9472   0.0000   0.0000   0.0000   0.2916
  15.900   1.4847   0.10724   0.10035  -0.1060  0.0016  1.0000  -5.9871   0.0000   0.0000   0.0000   0.2919
  16.100   1.4815   0.11095   0.10418  -0.1073  0.0016  1.0000  -6.0620   0.0000   0.0000   0.0000   0.2924
  16.200   1.4798   0.11283   0.10611  -0.1079  0.0016  1.0000  -6.0980   0.0000   0.0000   0.0000   0.2927
  16.300   1.4782   0.11469   0.10804  -0.1086  0.0016  1.0000  -6.1338   0.0000   0.0000   0.0000   0.2931
  16.400   1.4765   0.11655   0.10995  -0.1093  0.0016  1.0000  -6.1693   0.0000   0.0000   0.0000   0.2934
  16.500   1.4748   0.11844   0.11189  -0.1101  0.0016  1.0000  -6.2031   0.0000   0.0000   0.0000   0.2938
  16.600   1.4731   0.12030   0.11381  -0.1108  0.0015  1.0000  -6.2373   0.0000   0.0000   0.0000   0.2941
  16.700   1.4713   0.12219   0.11575  -0.1116  0.0015  1.0000  -6.2695   0.0000   0.0000   0.0000   0.2945
  16.800   1.4696   0.12406   0.11768  -0.1124  0.0015  1.0000  -6.3022   0.0000   0.0000   0.0000   0.2949
  16.900   1.4679   0.12593   0.11960  -0.1132  0.0015  1.0000  -6.3338   0.0000   0.0000   0.0000   0.2953
  17.000   1.4661   0.12781   0.12153  -0.1140  0.0015  1.0000  -6.3647   0.0000   0.0000   0.0000   0.2958


