xflr5 v6.59

 Calculated polar for: SF-12

 1 1 Reynolds number fixed          Mach number fixed         

 xtrf =   1.000 (top)        1.000 (bottom)
 Mach =   0.050     Re =     3.000 e 6     Ncrit =   5.000

  alpha     CL        CD       CDp       Cm    Top Xtr Bot Xtr   Cpmin    Chinge    XCp    
 ------- -------- --------- --------- -------- ------- ------- -------- --------- ---------
  -3.000   0.3246   0.00699   0.00145  -0.1297  0.5610  0.0019  -1.6066   0.0000   0.0000   0.0000   0.6549
  -2.900   0.3361   0.00696   0.00143  -0.1297  0.5593  0.0021  -1.5555   0.0000   0.0000   0.0000   0.6408
  -2.800   0.3476   0.00694   0.00140  -0.1298  0.5571  0.0023  -1.5038   0.0000   0.0000   0.0000   0.6278
  -2.700   0.3590   0.00693   0.00138  -0.1298  0.5546  0.0024  -1.4537   0.0000   0.0000   0.0000   0.6155
  -2.600   0.3704   0.00691   0.00136  -0.1298  0.5516  0.0025  -1.4042   0.0000   0.0000   0.0000   0.6041
  -2.500   0.3817   0.00690   0.00134  -0.1298  0.5485  0.0027  -1.3560   0.0000   0.0000   0.0000   0.5934
  -2.400   0.3930   0.00689   0.00132  -0.1298  0.5451  0.0028  -1.3087   0.0000   0.0000   0.0000   0.5833
  -2.300   0.4044   0.00687   0.00130  -0.1298  0.5427  0.0030  -1.2608   0.0000   0.0000   0.0000   0.5737
  -2.200   0.4155   0.00672   0.00119  -0.1298  0.5407  0.0185  -1.2224   0.0000   0.0000   0.0000   0.5648
  -2.100   0.4269   0.00668   0.00116  -0.1298  0.5381  0.0225  -1.1779   0.0000   0.0000   0.0000   0.5562
  -2.000   0.4382   0.00665   0.00114  -0.1298  0.5351  0.0262  -1.1353   0.0000   0.0000   0.0000   0.5481
  -1.900   0.4494   0.00663   0.00112  -0.1298  0.5318  0.0294  -1.0936   0.0000   0.0000   0.0000   0.5405
  -1.800   0.4606   0.00662   0.00111  -0.1298  0.5282  0.0327  -1.0525   0.0000   0.0000   0.0000   0.5332
  -1.700   0.4719   0.00659   0.00109  -0.1298  0.5254  0.0373  -1.0117   0.0000   0.0000   0.0000   0.5262
  -1.600   0.4833   0.00658   0.00108  -0.1298  0.5232  0.0392  -0.9710   0.0000   0.0000   0.0000   0.5196
  -1.500   0.4946   0.00656   0.00107  -0.1298  0.5206  0.0422  -0.9310   0.0000   0.0000   0.0000   0.5132
  -1.400   0.5060   0.00655   0.00106  -0.1298  0.5174  0.0447  -0.8914   0.0000   0.0000   0.0000   0.5072
  -1.300   0.5171   0.00653   0.00105  -0.1298  0.5141  0.0506  -0.8704   0.0000   0.0000   0.0000   0.5014
  -1.200   0.5282   0.00651   0.00105  -0.1298  0.5104  0.0580  -0.8794   0.0000   0.0000   0.0000   0.4959
  -1.100   0.5394   0.00649   0.00104  -0.1298  0.5076  0.0657  -0.8884   0.0000   0.0000   0.0000   0.4906
  -1.000   0.5508   0.00646   0.00103  -0.1298  0.5052  0.0724  -0.8976   0.0000   0.0000   0.0000   0.4855
  -0.900   0.5621   0.00645   0.00103  -0.1298  0.5023  0.0771  -0.9070   0.0000   0.0000   0.0000   0.4806
  -0.800   0.5733   0.00646   0.00103  -0.1298  0.4990  0.0791  -0.9165   0.0000   0.0000   0.0000   0.4759
  -0.700   0.5845   0.00648   0.00104  -0.1298  0.4952  0.0809  -0.9259   0.0000   0.0000   0.0000   0.4714
  -0.600   0.5956   0.00649   0.00105  -0.1298  0.4913  0.0840  -0.9356   0.0000   0.0000   0.0000   0.4670
  -0.500   0.6069   0.00648   0.00105  -0.1298  0.4891  0.0870  -0.9456   0.0000   0.0000   0.0000   0.4628
  -0.400   0.6183   0.00649   0.00105  -0.1298  0.4863  0.0896  -0.9555   0.0000   0.0000   0.0000   0.4587
  -0.300   0.6295   0.00649   0.00105  -0.1298  0.4830  0.0927  -0.9654   0.0000   0.0000   0.0000   0.4548
  -0.200   0.6406   0.00651   0.00106  -0.1298  0.4791  0.0952  -0.9756   0.0000   0.0000   0.0000   0.4511
  -0.100   0.6516   0.00654   0.00108  -0.1298  0.4750  0.0973  -0.9858   0.0000   0.0000   0.0000   0.4474
   0.000   0.6629   0.00654   0.00108  -0.1298  0.4724  0.1011  -0.9961   0.0000   0.0000   0.0000   0.4439
   0.100   0.6742   0.00654   0.00109  -0.1298  0.4697  0.1044  -1.0065   0.0000   0.0000   0.0000   0.4405
   0.200   0.6853   0.00656   0.00110  -0.1298  0.4662  0.1073  -1.0171   0.0000   0.0000   0.0000   0.4372
   0.300   0.6963   0.00658   0.00112  -0.1297  0.4622  0.1104  -1.0277   0.0000   0.0000   0.0000   0.4340
   0.400   0.7073   0.00661   0.00113  -0.1297  0.4580  0.1132  -1.0383   0.0000   0.0000   0.0000   0.4309
   0.500   0.7185   0.00662   0.00114  -0.1297  0.4554  0.1163  -1.0491   0.0000   0.0000   0.0000   0.4279
   0.600   0.7297   0.00663   0.00115  -0.1297  0.4524  0.1203  -1.0601   0.0000   0.0000   0.0000   0.4250
   0.700   0.7408   0.00665   0.00117  -0.1297  0.4487  0.1232  -1.0713   0.0000   0.0000   0.0000   0.4222
   0.800   0.7517   0.00669   0.00119  -0.1296  0.4445  0.1261  -1.0823   0.0000   0.0000   0.0000   0.4195
   0.900   0.7626   0.00671   0.00121  -0.1296  0.4406  0.1298  -1.0934   0.0000   0.0000   0.0000   0.4168
   1.000   0.7738   0.00673   0.00123  -0.1296  0.4379  0.1330  -1.1047   0.0000   0.0000   0.0000   0.4142
   1.100   0.7849   0.00674   0.00124  -0.1296  0.4346  0.1369  -1.1164   0.0000   0.0000   0.0000   0.4117
   1.200   0.7959   0.00677   0.00127  -0.1295  0.4306  0.1403  -1.1279   0.0000   0.0000   0.0000   0.4092
   1.300   0.8066   0.00682   0.00130  -0.1295  0.4262  0.1431  -1.1394   0.0000   0.0000   0.0000   0.4068
   1.400   0.8176   0.00684   0.00131  -0.1294  0.4230  0.1473  -1.1511   0.0000   0.0000   0.0000   0.4045
   1.500   0.8287   0.00685   0.00133  -0.1294  0.4199  0.1513  -1.1630   0.0000   0.0000   0.0000   0.4022
   1.600   0.8396   0.00688   0.00136  -0.1294  0.4162  0.1543  -1.1751   0.0000   0.0000   0.0000   0.4000
   1.700   0.8503   0.00692   0.00139  -0.1293  0.4120  0.1584  -1.1870   0.0000   0.0000   0.0000   0.3979
   1.800   0.8611   0.00696   0.00142  -0.1293  0.4081  0.1624  -1.1991   0.0000   0.0000   0.0000   0.3958
   1.900   0.8722   0.00698   0.00144  -0.1292  0.4050  0.1665  -1.2113   0.0000   0.0000   0.0000   0.3937
   2.000   0.8830   0.00701   0.00147  -0.1292  0.4014  0.1707  -1.2238   0.0000   0.0000   0.0000   0.3917
   2.100   0.8937   0.00705   0.00150  -0.1291  0.3973  0.1742  -1.2363   0.0000   0.0000   0.0000   0.3897
   2.200   0.9043   0.00710   0.00154  -0.1290  0.3930  0.1791  -1.2488   0.0000   0.0000   0.0000   0.3878
   2.300   0.9153   0.00712   0.00156  -0.1290  0.3902  0.1836  -1.2615   0.0000   0.0000   0.0000   0.3860
   2.400   0.9261   0.00715   0.00159  -0.1289  0.3865  0.1877  -1.2743   0.0000   0.0000   0.0000   0.3841
   2.500   0.9367   0.00720   0.00163  -0.1289  0.3824  0.1927  -1.2873   0.0000   0.0000   0.0000   0.3823
   2.600   0.9472   0.00725   0.00166  -0.1288  0.3782  0.1970  -1.3002   0.0000   0.0000   0.0000   0.3806
   2.700   0.9580   0.00727   0.00169  -0.1287  0.3753  0.2026  -1.3135   0.0000   0.0000   0.0000   0.3788
   2.800   0.9688   0.00731   0.00173  -0.1287  0.3718  0.2072  -1.3267   0.0000   0.0000   0.0000   0.3772
   2.900   0.9793   0.00735   0.00177  -0.1286  0.3677  0.2127  -1.3399   0.0000   0.0000   0.0000   0.3755
   3.000   0.9896   0.00741   0.00181  -0.1284  0.3633  0.2182  -1.3533   0.0000   0.0000   0.0000   0.3739
   3.100   1.0003   0.00744   0.00185  -0.1284  0.3604  0.2238  -1.3671   0.0000   0.0000   0.0000   0.3723
   3.200   1.0110   0.00747   0.00188  -0.1283  0.3572  0.2297  -1.3809   0.0000   0.0000   0.0000   0.3707
   3.300   1.0215   0.00752   0.00193  -0.1282  0.3532  0.2359  -1.3945   0.0000   0.0000   0.0000   0.3692
   3.400   1.0317   0.00758   0.00198  -0.1280  0.3488  0.2424  -1.4082   0.0000   0.0000   0.0000   0.3677
   3.500   1.0422   0.00761   0.00202  -0.1280  0.3457  0.2490  -1.4225   0.0000   0.0000   0.0000   0.3662
   3.600   1.0528   0.00765   0.00205  -0.1279  0.3426  0.2557  -1.4369   0.0000   0.0000   0.0000   0.3648
   3.700   1.0632   0.00769   0.00210  -0.1278  0.3389  0.2639  -1.4511   0.0000   0.0000   0.0000   0.3633
   3.800   1.0733   0.00775   0.00215  -0.1276  0.3347  0.2716  -1.4651   0.0000   0.0000   0.0000   0.3619
   3.900   1.0833   0.00781   0.00221  -0.1274  0.3290  0.2800  -1.4795   0.0000   0.0000   0.0000   0.3605
   4.000   1.0910   0.00800   0.00232  -0.1268  0.3125  0.2879  -1.4920   0.0000   0.0000   0.0000   0.3590
   4.100   1.0971   0.00828   0.00248  -0.1260  0.2898  0.2960  -1.5031   0.0000   0.0000   0.0000   0.3575
   4.200   1.1043   0.00848   0.00262  -0.1253  0.2726  0.3065  -1.5152   0.0000   0.0000   0.0000   0.3560
   4.300   1.1096   0.00877   0.00280  -0.1243  0.2489  0.3169  -1.5255   0.0000   0.0000   0.0000   0.3544
   4.400   1.1154   0.00903   0.00297  -0.1234  0.2290  0.3285  -1.5365   0.0000   0.0000   0.0000   0.3529
   4.500   1.1232   0.00917   0.00308  -0.1228  0.2183  0.3451  -1.5498   0.0000   0.0000   0.0000   0.3515
   4.600   1.1310   0.00929   0.00320  -0.1223  0.2081  0.3739  -1.5630   0.0000   0.0000   0.0000   0.3501
   4.700   1.1375   0.00910   0.00340  -0.1217  0.1982  0.6087  -1.5751   0.0000   0.0000   0.0000   0.3488
   4.900   1.1512   0.00880   0.00378  -0.1203  0.1752  1.0000  -1.6004   0.0000   0.0000   0.0000   0.3461
   5.000   1.1572   0.00903   0.00393  -0.1194  0.1626  1.0000  -1.6127   0.0000   0.0000   0.0000   0.3446
   5.100   1.1630   0.00925   0.00407  -0.1185  0.1502  1.0000  -1.6291   0.0000   0.0000   0.0000   0.3432
   5.200   1.1686   0.00947   0.00423  -0.1175  0.1374  1.0000  -1.6437   0.0000   0.0000   0.0000   0.3417
   5.300   1.1657   0.01001   0.00459  -0.1150  0.1032  1.0000  -1.6434   0.0000   0.0000   0.0000   0.3397
   5.400   1.1560   0.01075   0.00510  -0.1112  0.0554  1.0000  -1.6326   0.0000   0.0000   0.0000   0.3371
   5.500   1.1462   0.01118   0.00543  -0.1072  0.0260  1.0000  -1.6318   0.0000   0.0000   0.0000   0.3343
   5.600   1.1415   0.01151   0.00570  -0.1041  0.0019  1.0000  -1.6345   0.0000   0.0000   0.0000   0.3318
   5.700   1.1475   0.01160   0.00579  -0.1032  0.0009  1.0000  -1.6470   0.0000   0.0000   0.0000   0.3304
   5.800   1.1539   0.01170   0.00588  -0.1023  0.0009  1.0000  -1.6603   0.0000   0.0000   0.0000   0.3290
   5.900   1.1604   0.01179   0.00597  -0.1015  0.0007  1.0000  -1.6736   0.0000   0.0000   0.0000   0.3277
   6.000   1.1671   0.01189   0.00606  -0.1007  0.0006  1.0000  -1.6873   0.0000   0.0000   0.0000   0.3263
   6.100   1.1737   0.01199   0.00616  -0.0999  0.0005  1.0000  -1.7009   0.0000   0.0000   0.0000   0.3250
   6.200   1.1799   0.01209   0.00626  -0.0991  0.0004  1.0000  -1.7140   0.0000   0.0000   0.0000   0.3237
   6.300   1.1854   0.01221   0.00637  -0.0981  0.0004  1.0000  -1.7268   0.0000   0.0000   0.0000   0.3224
   6.400   1.1909   0.01232   0.00649  -0.0971  0.0003  1.0000  -1.7399   0.0000   0.0000   0.0000   0.3210
   6.500   1.1966   0.01244   0.00660  -0.0962  0.0003  1.0000  -1.7533   0.0000   0.0000   0.0000   0.3197
   6.600   1.2026   0.01256   0.00672  -0.0953  0.0003  1.0000  -1.7669   0.0000   0.0000   0.0000   0.3184
   6.700   1.2087   0.01268   0.00684  -0.0945  0.0003  1.0000  -1.7807   0.0000   0.0000   0.0000   0.3172
   6.800   1.2148   0.01280   0.00696  -0.0937  0.0003  1.0000  -1.7944   0.0000   0.0000   0.0000   0.3160
   6.900   1.2202   0.01294   0.00710  -0.0927  0.0003  1.0000  -1.8081   0.0000   0.0000   0.0000   0.3147
   7.000   1.2255   0.01308   0.00724  -0.0918  0.0003  1.0000  -1.8216   0.0000   0.0000   0.0000   0.3135
   7.100   1.2310   0.01322   0.00738  -0.0909  0.0003  1.0000  -1.8354   0.0000   0.0000   0.0000   0.3123
   7.200   1.2367   0.01336   0.00753  -0.0900  0.0003  1.0000  -1.8495   0.0000   0.0000   0.0000   0.3111
   7.300   1.2425   0.01350   0.00767  -0.0892  0.0003  1.0000  -1.8637   0.0000   0.0000   0.0000   0.3099
   7.400   1.2484   0.01365   0.00781  -0.0884  0.0003  1.0000  -1.8782   0.0000   0.0000   0.0000   0.3088
   7.500   1.2535   0.01380   0.00797  -0.0875  0.0003  1.0000  -1.8923   0.0000   0.0000   0.0000   0.3076
   7.600   1.2586   0.01396   0.00813  -0.0866  0.0003  1.0000  -1.9064   0.0000   0.0000   0.0000   0.3065
   7.700   1.2640   0.01413   0.00830  -0.0858  0.0003  1.0000  -1.9208   0.0000   0.0000   0.0000   0.3054
   7.800   1.2695   0.01429   0.00846  -0.0849  0.0003  1.0000  -1.9354   0.0000   0.0000   0.0000   0.3043
   7.900   1.2752   0.01446   0.00863  -0.0842  0.0003  1.0000  -1.9502   0.0000   0.0000   0.0000   0.3032
   8.000   1.2804   0.01464   0.00882  -0.0833  0.0003  1.0000  -1.9651   0.0000   0.0000   0.0000   0.3021
   8.100   1.2852   0.01483   0.00902  -0.0824  0.0003  1.0000  -1.9796   0.0000   0.0000   0.0000   0.3010
   8.200   1.2903   0.01503   0.00922  -0.0816  0.0003  1.0000  -1.9944   0.0000   0.0000   0.0000   0.2999
   8.300   1.2956   0.01522   0.00941  -0.0808  0.0003  1.0000  -2.0095   0.0000   0.0000   0.0000   0.2989
   8.400   1.3011   0.01542   0.00961  -0.0800  0.0003  1.0000  -2.0248   0.0000   0.0000   0.0000   0.2979
   8.500   1.3062   0.01562   0.00982  -0.0792  0.0003  1.0000  -2.0405   0.0000   0.0000   0.0000   0.2969
   8.600   1.3109   0.01585   0.01006  -0.0784  0.0003  1.0000  -2.0555   0.0000   0.0000   0.0000   0.2959
   8.700   1.3157   0.01608   0.01029  -0.0776  0.0003  1.0000  -2.0707   0.0000   0.0000   0.0000   0.2949
   8.800   1.3207   0.01630   0.01052  -0.0768  0.0003  1.0000  -2.0863   0.0000   0.0000   0.0000   0.2939
   8.900   1.3259   0.01653   0.01075  -0.0760  0.0003  1.0000  -2.1021   0.0000   0.0000   0.0000   0.2929
   9.000   1.3308   0.01676   0.01100  -0.0753  0.0003  1.0000  -2.1183   0.0000   0.0000   0.0000   0.2920
   9.100   1.3352   0.01702   0.01126  -0.0744  0.0003  1.0000  -2.1338   0.0000   0.0000   0.0000   0.2910
   9.200   1.3397   0.01728   0.01153  -0.0737  0.0003  1.0000  -2.1495   0.0000   0.0000   0.0000   0.2900
   9.300   1.3445   0.01754   0.01180  -0.0729  0.0003  1.0000  -2.1657   0.0000   0.0000   0.0000   0.2891
   9.400   1.3494   0.01780   0.01207  -0.0722  0.0003  1.0000  -2.1828   0.0000   0.0000   0.0000   0.2882
   9.500   1.3539   0.01809   0.01236  -0.0714  0.0003  1.0000  -2.2248   0.0000   0.0000   0.0000   0.2873
   9.600   1.3579   0.01839   0.01268  -0.0706  0.0003  1.0000  -2.2872   0.0000   0.0000   0.0000   0.2864
   9.700   1.3621   0.01870   0.01300  -0.0698  0.0003  1.0000  -2.3499   0.0000   0.0000   0.0000   0.2855
   9.800   1.3665   0.01901   0.01332  -0.0691  0.0003  1.0000  -2.4223   0.0000   0.0000   0.0000   0.2846
   9.900   1.3703   0.01936   0.01369  -0.0683  0.0003  1.0000  -2.5307   0.0000   0.0000   0.0000   0.2837
  10.000   1.3744   0.01970   0.01404  -0.0676  0.0003  1.0000  -2.5998   0.0000   0.0000   0.0000   0.2828
  10.100   1.3785   0.02004   0.01439  -0.0669  0.0003  1.0000  -2.6697   0.0000   0.0000   0.0000   0.2820
  10.200   1.3829   0.02037   0.01473  -0.0662  0.0004  1.0000  -2.7420   0.0000   0.0000   0.0000   0.2812
  10.300   1.3875   0.02070   0.01507  -0.0656  0.0004  1.0000  -2.8161   0.0000   0.0000   0.0000   0.2804
  10.400   1.3921   0.02104   0.01542  -0.0649  0.0004  1.0000  -2.8909   0.0000   0.0000   0.0000   0.2796
  10.500   1.3961   0.02141   0.01580  -0.0643  0.0004  1.0000  -2.9633   0.0000   0.0000   0.0000   0.2788
  10.600   1.4002   0.02179   0.01619  -0.0636  0.0004  1.0000  -3.0369   0.0000   0.0000   0.0000   0.2780
  10.700   1.4046   0.02216   0.01657  -0.0631  0.0004  1.0000  -3.1130   0.0000   0.0000   0.0000   0.2773
  10.800   1.4093   0.02252   0.01694  -0.0625  0.0004  1.0000  -3.1910   0.0000   0.0000   0.0000   0.2766
  10.900   1.4140   0.02290   0.01733  -0.0620  0.0004  1.0000  -3.2699   0.0000   0.0000   0.0000   0.2759
  11.000   1.4185   0.02333   0.01777  -0.0616  0.0004  1.0000  -3.3481   0.0000   0.0000   0.0000   0.2752
  11.100   1.4238   0.02377   0.01822  -0.0613  0.0004  1.0000  -3.4309   0.0000   0.0000   0.0000   0.2747
  11.200   1.4311   0.02421   0.01867  -0.0613  0.0004  1.0000  -3.5245   0.0000   0.0000   0.0000   0.2743
  11.300   1.4396   0.02467   0.01914  -0.0617  0.0004  1.0000  -3.6257   0.0000   0.0000   0.0000   0.2741
  11.400   1.4472   0.02512   0.01960  -0.0618  0.0004  1.0000  -3.7233   0.0000   0.0000   0.0000   0.2738
  11.500   1.4541   0.02562   0.02011  -0.0619  0.0005  1.0000  -3.8168   0.0000   0.0000   0.0000   0.2734
  11.600   1.4599   0.02614   0.02064  -0.0619  0.0005  1.0000  -3.9054   0.0000   0.0000   0.0000   0.2730
  11.700   1.4652   0.02664   0.02116  -0.0617  0.0005  1.0000  -3.9911   0.0000   0.0000   0.0000   0.2725
  11.800   1.4702   0.02712   0.02165  -0.0614  0.0005  1.0000  -4.0750   0.0000   0.0000   0.0000   0.2720
  11.900   1.4749   0.02761   0.02215  -0.0611  0.0005  1.0000  -4.1566   0.0000   0.0000   0.0000   0.2714
  12.000   1.4791   0.02815   0.02271  -0.0608  0.0005  1.0000  -4.2325   0.0000   0.0000   0.0000   0.2709
  12.100   1.4828   0.02872   0.02330  -0.0604  0.0006  1.0000  -4.3010   0.0000   0.0000   0.0000   0.2704
  12.200   1.4868   0.02924   0.02384  -0.0600  0.0006  1.0000  -4.3595   0.0000   0.0000   0.0000   0.2698
  12.300   1.4910   0.02975   0.02436  -0.0596  0.0007  1.0000  -4.4112   0.0000   0.0000   0.0000   0.2692
  12.400   1.4948   0.03029   0.02492  -0.0592  0.0008  1.0000  -4.4639   0.0000   0.0000   0.0000   0.2686
  12.500   1.4976   0.03094   0.02559  -0.0588  0.0008  1.0000  -4.5153   0.0000   0.0000   0.0000   0.2680
  12.600   1.5000   0.03162   0.02630  -0.0584  0.0009  1.0000  -4.5669   0.0000   0.0000   0.0000   0.2675
  12.700   1.5022   0.03231   0.02702  -0.0579  0.0009  1.0000  -4.6197   0.0000   0.0000   0.0000   0.2669
  12.800   1.5039   0.03303   0.02777  -0.0574  0.0009  1.0000  -4.6690   0.0000   0.0000   0.0000   0.2663
  12.900   1.5040   0.03393   0.02870  -0.0569  0.0010  1.0000  -4.7067   0.0000   0.0000   0.0000   0.2657


