xflr5 v6.59

 Calculated polar for: SF-14

 1 1 Reynolds number fixed          Mach number fixed         

 xtrf =   1.000 (top)        1.000 (bottom)
 Mach =   0.050     Re =     0.500 e 6     Ncrit =   5.000

  alpha     CL        CD       CDp       Cm    Top Xtr Bot Xtr   Cpmin    Chinge    XCp    
 ------- -------- --------- --------- -------- ------- ------- -------- --------- ---------
  -3.000   0.4468   0.01014   0.00310  -0.1678  0.6570  0.0319  -2.0409   0.0000   0.0000   0.0000   0.6298
  -2.900   0.4575   0.01007   0.00303  -0.1678  0.6540  0.0331  -1.9685   0.0000   0.0000   0.0000   0.6207
  -2.800   0.4681   0.01004   0.00297  -0.1677  0.6512  0.0343  -1.8966   0.0000   0.0000   0.0000   0.6119
  -2.700   0.4787   0.01001   0.00290  -0.1676  0.6485  0.0356  -1.8266   0.0000   0.0000   0.0000   0.6035
  -2.600   0.4896   0.00997   0.00284  -0.1676  0.6460  0.0368  -1.7570   0.0000   0.0000   0.0000   0.5954
  -2.500   0.5005   0.00991   0.00276  -0.1675  0.6432  0.0380  -1.6882   0.0000   0.0000   0.0000   0.5877
  -2.400   0.5113   0.00987   0.00271  -0.1675  0.6403  0.0394  -1.6191   0.0000   0.0000   0.0000   0.5803
  -2.300   0.5220   0.00984   0.00266  -0.1674  0.6374  0.0410  -1.5511   0.0000   0.0000   0.0000   0.5732
  -2.200   0.5326   0.00982   0.00261  -0.1673  0.6345  0.0428  -1.4842   0.0000   0.0000   0.0000   0.5664
  -2.100   0.5431   0.00980   0.00257  -0.1672  0.6318  0.0446  -1.4181   0.0000   0.0000   0.0000   0.5599
  -2.000   0.5538   0.00977   0.00253  -0.1671  0.6293  0.0468  -1.3517   0.0000   0.0000   0.0000   0.5537
  -1.900   0.5647   0.00974   0.00249  -0.1671  0.6267  0.0489  -1.2902   0.0000   0.0000   0.0000   0.5476
  -1.800   0.5755   0.00971   0.00245  -0.1671  0.6241  0.0510  -1.2340   0.0000   0.0000   0.0000   0.5418
  -1.700   0.5862   0.00969   0.00242  -0.1670  0.6214  0.0534  -1.1783   0.0000   0.0000   0.0000   0.5362
  -1.600   0.5968   0.00968   0.00239  -0.1669  0.6187  0.0559  -1.1236   0.0000   0.0000   0.0000   0.5308
  -1.500   0.6073   0.00966   0.00236  -0.1668  0.6161  0.0586  -1.0694   0.0000   0.0000   0.0000   0.5256
  -1.400   0.6178   0.00966   0.00234  -0.1667  0.6136  0.0619  -1.0159   0.0000   0.0000   0.0000   0.5206
  -1.300   0.6286   0.00964   0.00231  -0.1666  0.6112  0.0652  -0.9622   0.0000   0.0000   0.0000   0.5157
  -1.200   0.6393   0.00962   0.00229  -0.1666  0.6086  0.0688  -0.9566   0.0000   0.0000   0.0000   0.5110
  -1.100   0.6500   0.00960   0.00227  -0.1665  0.6060  0.0722  -0.9650   0.0000   0.0000   0.0000   0.5065
  -1.000   0.6606   0.00959   0.00226  -0.1664  0.6033  0.0763  -0.9733   0.0000   0.0000   0.0000   0.5021
  -0.900   0.6712   0.00959   0.00225  -0.1663  0.6008  0.0806  -0.9815   0.0000   0.0000   0.0000   0.4978
  -0.800   0.6816   0.00959   0.00224  -0.1662  0.5984  0.0854  -0.9897   0.0000   0.0000   0.0000   0.4937
  -0.700   0.6920   0.00959   0.00223  -0.1661  0.5962  0.0902  -0.9979   0.0000   0.0000   0.0000   0.4897
  -0.500   0.7135   0.00956   0.00223  -0.1660  0.5916  0.1013  -1.0148   0.0000   0.0000   0.0000   0.4821
  -0.400   0.7242   0.00956   0.00223  -0.1660  0.5891  0.1074  -1.0231   0.0000   0.0000   0.0000   0.4784
  -0.300   0.7347   0.00955   0.00223  -0.1659  0.5866  0.1140  -1.0314   0.0000   0.0000   0.0000   0.4749
  -0.200   0.7451   0.00956   0.00223  -0.1658  0.5841  0.1211  -1.0397   0.0000   0.0000   0.0000   0.4714
  -0.100   0.7555   0.00956   0.00223  -0.1656  0.5818  0.1289  -1.0479   0.0000   0.0000   0.0000   0.4681
   0.000   0.7657   0.00957   0.00224  -0.1655  0.5795  0.1371  -1.0564   0.0000   0.0000   0.0000   0.4648
   0.100   0.7764   0.00956   0.00225  -0.1655  0.5774  0.1460  -1.0651   0.0000   0.0000   0.0000   0.4617
   0.200   0.7871   0.00955   0.00226  -0.1654  0.5753  0.1558  -1.0738   0.0000   0.0000   0.0000   0.4586
   0.300   0.7976   0.00955   0.00228  -0.1653  0.5730  0.1663  -1.0825   0.0000   0.0000   0.0000   0.4556
   0.400   0.8081   0.00955   0.00229  -0.1652  0.5707  0.1773  -1.0911   0.0000   0.0000   0.0000   0.4526
   0.500   0.8185   0.00955   0.00231  -0.1651  0.5684  0.1895  -1.0997   0.0000   0.0000   0.0000   0.4498
   0.600   0.8288   0.00955   0.00233  -0.1650  0.5662  0.2025  -1.1082   0.0000   0.0000   0.0000   0.4470
   0.700   0.8389   0.00957   0.00236  -0.1649  0.5640  0.2161  -1.1166   0.0000   0.0000   0.0000   0.4443
   0.800   0.8492   0.00957   0.00238  -0.1648  0.5619  0.2310  -1.1252   0.0000   0.0000   0.0000   0.4416
   0.900   0.8598   0.00956   0.00241  -0.1647  0.5598  0.2479  -1.1339   0.0000   0.0000   0.0000   0.4391
   1.000   0.8703   0.00955   0.00244  -0.1646  0.5576  0.2659  -1.1425   0.0000   0.0000   0.0000   0.4365
   1.100   0.8807   0.00953   0.00247  -0.1645  0.5553  0.2866  -1.1511   0.0000   0.0000   0.0000   0.4341
   1.200   0.8909   0.00952   0.00250  -0.1644  0.5531  0.3105  -1.1598   0.0000   0.0000   0.0000   0.4317
   1.300   0.9011   0.00950   0.00254  -0.1643  0.5510  0.3400  -1.1686   0.0000   0.0000   0.0000   0.4293
   1.400   0.9111   0.00946   0.00259  -0.1642  0.5490  0.3830  -1.1773   0.0000   0.0000   0.0000   0.4271
   1.500   0.9209   0.00936   0.00266  -0.1641  0.5471  0.4615  -1.1859   0.0000   0.0000   0.0000   0.4249
   1.600   0.9274   0.00884   0.00282  -0.1633  0.5453  0.7418  -1.1926   0.0000   0.0000   0.0000   0.4227
   1.800   0.9502   0.00851   0.00286  -0.1633  0.5412  1.0000  -1.2119   0.0000   0.0000   0.0000   0.4182
   1.900   0.9604   0.00855   0.00288  -0.1632  0.5390  1.0000  -1.2208   0.0000   0.0000   0.0000   0.4161
   2.000   0.9706   0.00860   0.00291  -0.1630  0.5369  1.0000  -1.2297   0.0000   0.0000   0.0000   0.4141
   2.100   0.9806   0.00866   0.00294  -0.1628  0.5347  1.0000  -1.2384   0.0000   0.0000   0.0000   0.4120
   2.200   0.9906   0.00871   0.00297  -0.1626  0.5327  1.0000  -1.2471   0.0000   0.0000   0.0000   0.4100
   2.300   1.0005   0.00878   0.00300  -0.1624  0.5308  1.0000  -1.2561   0.0000   0.0000   0.0000   0.4080
   2.400   1.0107   0.00883   0.00304  -0.1623  0.5291  1.0000  -1.2653   0.0000   0.0000   0.0000   0.4061
   2.500   1.0210   0.00887   0.00307  -0.1621  0.5272  1.0000  -1.2746   0.0000   0.0000   0.0000   0.4043
   2.600   1.0313   0.00891   0.00311  -0.1620  0.5253  1.0000  -1.2838   0.0000   0.0000   0.0000   0.4024
   2.700   1.0414   0.00896   0.00315  -0.1618  0.5232  1.0000  -1.2930   0.0000   0.0000   0.0000   0.4006
   2.800   1.0513   0.00901   0.00318  -0.1616  0.5212  1.0000  -1.3021   0.0000   0.0000   0.0000   0.3988
   2.900   1.0612   0.00907   0.00324  -0.1614  0.5191  1.0000  -1.3111   0.0000   0.0000   0.0000   0.3971
   3.000   1.0709   0.00913   0.00329  -0.1612  0.5171  1.0000  -1.3200   0.0000   0.0000   0.0000   0.3953
   3.100   1.0805   0.00920   0.00333  -0.1609  0.5152  1.0000  -1.3289   0.0000   0.0000   0.0000   0.3936
   3.200   1.0904   0.00926   0.00338  -0.1607  0.5135  1.0000  -1.3382   0.0000   0.0000   0.0000   0.3920
   3.300   1.1005   0.00930   0.00342  -0.1606  0.5117  1.0000  -1.3477   0.0000   0.0000   0.0000   0.3903
   3.400   1.1105   0.00935   0.00347  -0.1604  0.5098  1.0000  -1.3572   0.0000   0.0000   0.0000   0.3887
   3.500   1.1204   0.00940   0.00352  -0.1602  0.5079  1.0000  -1.3666   0.0000   0.0000   0.0000   0.3871
   3.600   1.1302   0.00946   0.00357  -0.1600  0.5059  1.0000  -1.3759   0.0000   0.0000   0.0000   0.3856
   3.700   1.1398   0.00952   0.00362  -0.1597  0.5040  1.0000  -1.3852   0.0000   0.0000   0.0000   0.3840
   3.800   1.1493   0.00959   0.00368  -0.1594  0.5021  1.0000  -1.3943   0.0000   0.0000   0.0000   0.3825
   3.900   1.1586   0.00966   0.00373  -0.1591  0.5002  1.0000  -1.4034   0.0000   0.0000   0.0000   0.3810
   4.000   1.1679   0.00973   0.00381  -0.1588  0.4985  1.0000  -1.4127   0.0000   0.0000   0.0000   0.3795
   4.100   1.1779   0.00978   0.00386  -0.1586  0.4968  1.0000  -1.4225   0.0000   0.0000   0.0000   0.3780
   4.200   1.1876   0.00983   0.00392  -0.1584  0.4950  1.0000  -1.4322   0.0000   0.0000   0.0000   0.3766
   4.300   1.1973   0.00988   0.00398  -0.1582  0.4931  1.0000  -1.4418   0.0000   0.0000   0.0000   0.3752
   4.400   1.2068   0.00994   0.00404  -0.1579  0.4912  1.0000  -1.4513   0.0000   0.0000   0.0000   0.3738
   4.500   1.2161   0.01001   0.00410  -0.1576  0.4893  1.0000  -1.4607   0.0000   0.0000   0.0000   0.3724
   4.600   1.2252   0.01008   0.00416  -0.1572  0.4875  1.0000  -1.4701   0.0000   0.0000   0.0000   0.3710
   4.700   1.2342   0.01015   0.00423  -0.1569  0.4857  1.0000  -1.4794   0.0000   0.0000   0.0000   0.3697
   4.800   1.2431   0.01023   0.00430  -0.1565  0.4840  1.0000  -1.4889   0.0000   0.0000   0.0000   0.3683
   4.900   1.2524   0.01029   0.00437  -0.1562  0.4823  1.0000  -1.4987   0.0000   0.0000   0.0000   0.3670
   5.000   1.2619   0.01035   0.00444  -0.1559  0.4806  1.0000  -1.5086   0.0000   0.0000   0.0000   0.3657
   5.100   1.2712   0.01040   0.00452  -0.1556  0.4788  1.0000  -1.5184   0.0000   0.0000   0.0000   0.3644
   5.200   1.2804   0.01047   0.00459  -0.1553  0.4769  1.0000  -1.5281   0.0000   0.0000   0.0000   0.3632
   5.300   1.2892   0.01053   0.00466  -0.1549  0.4749  1.0000  -1.5376   0.0000   0.0000   0.0000   0.3619
   5.400   1.2962   0.01063   0.00474  -0.1541  0.4705  1.0000  -1.5462   0.0000   0.0000   0.0000   0.3605
   5.500   1.3025   0.01073   0.00481  -0.1532  0.4638  1.0000  -1.5545   0.0000   0.0000   0.0000   0.3591
   5.600   1.3061   0.01085   0.00489  -0.1518  0.4554  1.0000  -1.5609   0.0000   0.0000   0.0000   0.3575
   5.700   1.3095   0.01096   0.00497  -0.1503  0.4462  1.0000  -1.5672   0.0000   0.0000   0.0000   0.3559
   5.800   1.3114   0.01113   0.00507  -0.1485  0.4370  1.0000  -1.5724   0.0000   0.0000   0.0000   0.3542
   5.900   1.3145   0.01128   0.00518  -0.1470  0.4265  1.0000  -1.5785   0.0000   0.0000   0.0000   0.3527
   6.000   1.3185   0.01143   0.00529  -0.1456  0.4168  1.0000  -1.5851   0.0000   0.0000   0.0000   0.3512
   6.100   1.3228   0.01159   0.00541  -0.1444  0.4102  1.0000  -1.5920   0.0000   0.0000   0.0000   0.3498
   6.200   1.3300   0.01169   0.00550  -0.1437  0.4060  1.0000  -1.6012   0.0000   0.0000   0.0000   0.3485
   6.300   1.3366   0.01181   0.00561  -0.1429  0.4011  1.0000  -1.6098   0.0000   0.0000   0.0000   0.3472
   6.400   1.3420   0.01195   0.00573  -0.1419  0.3963  1.0000  -1.6386   0.0000   0.0000   0.0000   0.3459
   6.500   1.3495   0.01205   0.00585  -0.1413  0.3935  1.0000  -1.6804   0.0000   0.0000   0.0000   0.3447
   6.600   1.3558   0.01217   0.00597  -0.1405  0.3880  1.0000  -1.7199   0.0000   0.0000   0.0000   0.3435
   6.700   1.3604   0.01234   0.00611  -0.1393  0.3825  1.0000  -1.7558   0.0000   0.0000   0.0000   0.3421
   6.800   1.3659   0.01248   0.00625  -0.1383  0.3764  1.0000  -1.7961   0.0000   0.0000   0.0000   0.3409
   6.900   1.3694   0.01269   0.00641  -0.1370  0.3691  1.0000  -1.8339   0.0000   0.0000   0.0000   0.3395
   7.000   1.3730   0.01289   0.00659  -0.1357  0.3595  1.0000  -1.8720   0.0000   0.0000   0.0000   0.3381
   7.100   1.3749   0.01317   0.00680  -0.1342  0.3476  1.0000  -1.9381   0.0000   0.0000   0.0000   0.3367
   7.200   1.3755   0.01350   0.00705  -0.1324  0.3328  1.0000  -1.9977   0.0000   0.0000   0.0000   0.3352
   7.300   1.3742   0.01390   0.00735  -0.1303  0.3159  1.0000  -2.0476   0.0000   0.0000   0.0000   0.3337
   7.400   1.3715   0.01436   0.00770  -0.1281  0.2959  1.0000  -2.0911   0.0000   0.0000   0.0000   0.3321
   7.500   1.3677   0.01490   0.00811  -0.1257  0.2739  1.0000  -2.1286   0.0000   0.0000   0.0000   0.3305
   7.600   1.3624   0.01554   0.00860  -0.1232  0.2490  1.0000  -2.1579   0.0000   0.0000   0.0000   0.3288
   7.700   1.3507   0.01646   0.00932  -0.1197  0.2142  1.0000  -2.1546   0.0000   0.0000   0.0000   0.3269
   7.800   1.3391   0.01744   0.01009  -0.1164  0.1788  1.0000  -2.1510   0.0000   0.0000   0.0000   0.3251
   7.900   1.3280   0.01843   0.01090  -0.1133  0.1465  1.0000  -2.1487   0.0000   0.0000   0.0000   0.3233
   8.000   1.3177   0.01943   0.01173  -0.1104  0.1155  1.0000  -2.1502   0.0000   0.0000   0.0000   0.3216
   8.100   1.3092   0.02037   0.01253  -0.1078  0.0898  1.0000  -2.1608   0.0000   0.0000   0.0000   0.3200
   8.200   1.3043   0.02117   0.01323  -0.1058  0.0702  1.0000  -2.1898   0.0000   0.0000   0.0000   0.3186
   8.300   1.3023   0.02182   0.01382  -0.1042  0.0575  1.0000  -2.2341   0.0000   0.0000   0.0000   0.3174
   8.400   1.3022   0.02239   0.01434  -0.1029  0.0481  1.0000  -2.2889   0.0000   0.0000   0.0000   0.3162
   8.500   1.3032   0.02291   0.01484  -0.1017  0.0408  1.0000  -2.3493   0.0000   0.0000   0.0000   0.3151
   8.600   1.3045   0.02341   0.01532  -0.1006  0.0350  1.0000  -2.4119   0.0000   0.0000   0.0000   0.3140
   8.700   1.3064   0.02389   0.01579  -0.0996  0.0303  1.0000  -2.4778   0.0000   0.0000   0.0000   0.3129
   8.800   1.3081   0.02440   0.01630  -0.0986  0.0254  1.0000  -2.5382   0.0000   0.0000   0.0000   0.3119
   8.900   1.3099   0.02492   0.01680  -0.0976  0.0210  1.0000  -2.6026   0.0000   0.0000   0.0000   0.3108
   9.000   1.3060   0.02579   0.01762  -0.0960  0.0106  1.0000  -2.6366   0.0000   0.0000   0.0000   0.3097
   9.100   1.3025   0.02668   0.01848  -0.0945  0.0022  1.0000  -2.6715   0.0000   0.0000   0.0000   0.3086
   9.200   1.3049   0.02719   0.01901  -0.0936  0.0014  1.0000  -2.7409   0.0000   0.0000   0.0000   0.3076
   9.300   1.3084   0.02764   0.01948  -0.0929  0.0013  1.0000  -2.8184   0.0000   0.0000   0.0000   0.3067
   9.400   1.3119   0.02808   0.01995  -0.0922  0.0013  1.0000  -2.8971   0.0000   0.0000   0.0000   0.3058
   9.500   1.3156   0.02853   0.02041  -0.0915  0.0012  1.0000  -2.9768   0.0000   0.0000   0.0000   0.3049
   9.600   1.3192   0.02899   0.02090  -0.0909  0.0012  1.0000  -3.0561   0.0000   0.0000   0.0000   0.3040
   9.700   1.3224   0.02947   0.02140  -0.0902  0.0012  1.0000  -3.1345   0.0000   0.0000   0.0000   0.3032
   9.800   1.3257   0.02996   0.02192  -0.0895  0.0012  1.0000  -3.2135   0.0000   0.0000   0.0000   0.3023
   9.900   1.3291   0.03046   0.02244  -0.0889  0.0011  1.0000  -3.2935   0.0000   0.0000   0.0000   0.3015
  10.000   1.3324   0.03097   0.02297  -0.0882  0.0011  1.0000  -3.3738   0.0000   0.0000   0.0000   0.3007
  10.100   1.3354   0.03150   0.02354  -0.0876  0.0011  1.0000  -3.4528   0.0000   0.0000   0.0000   0.2999
  10.200   1.3383   0.03205   0.02411  -0.0869  0.0011  1.0000  -3.5320   0.0000   0.0000   0.0000   0.2991
  10.300   1.3413   0.03260   0.02468  -0.0863  0.0011  1.0000  -3.6124   0.0000   0.0000   0.0000   0.2983
  10.400   1.3443   0.03316   0.02527  -0.0857  0.0011  1.0000  -3.6962   0.0000   0.0000   0.0000   0.2975
  10.500   1.3470   0.03375   0.02590  -0.0851  0.0011  1.0000  -3.7765   0.0000   0.0000   0.0000   0.2967
  10.600   1.3495   0.03435   0.02653  -0.0845  0.0011  1.0000  -3.8587   0.0000   0.0000   0.0000   0.2960
  10.700   1.3522   0.03496   0.02717  -0.0839  0.0010  1.0000  -3.9423   0.0000   0.0000   0.0000   0.2952
  10.800   1.3548   0.03558   0.02782  -0.0833  0.0010  1.0000  -4.0260   0.0000   0.0000   0.0000   0.2945
  10.900   1.3571   0.03623   0.02850  -0.0827  0.0010  1.0000  -4.1080   0.0000   0.0000   0.0000   0.2938
  11.000   1.3594   0.03690   0.02920  -0.0822  0.0010  1.0000  -4.1900   0.0000   0.0000   0.0000   0.2931
  11.100   1.3618   0.03757   0.02990  -0.0816  0.0010  1.0000  -4.2730   0.0000   0.0000   0.0000   0.2924
  11.200   1.3640   0.03825   0.03062  -0.0811  0.0010  1.0000  -4.3555   0.0000   0.0000   0.0000   0.2917
  11.300   1.3660   0.03898   0.03137  -0.0806  0.0010  1.0000  -4.4364   0.0000   0.0000   0.0000   0.2911
  11.400   1.3680   0.03970   0.03213  -0.0801  0.0010  1.0000  -4.5181   0.0000   0.0000   0.0000   0.2904
  11.500   1.3701   0.04043   0.03289  -0.0796  0.0010  1.0000  -4.6006   0.0000   0.0000   0.0000   0.2898
  11.600   1.3720   0.04119   0.03369  -0.0791  0.0010  1.0000  -4.6814   0.0000   0.0000   0.0000   0.2892
  11.700   1.3737   0.04198   0.03451  -0.0786  0.0010  1.0000  -4.7615   0.0000   0.0000   0.0000   0.2886
  11.800   1.3755   0.04276   0.03532  -0.0782  0.0010  1.0000  -4.8426   0.0000   0.0000   0.0000   0.2880
  11.900   1.3772   0.04356   0.03616  -0.0777  0.0010  1.0000  -4.9235   0.0000   0.0000   0.0000   0.2874
  12.000   1.3787   0.04440   0.03704  -0.0773  0.0010  1.0000  -5.0027   0.0000   0.0000   0.0000   0.2868
  12.100   1.3802   0.04525   0.03793  -0.0769  0.0010  1.0000  -5.0835   0.0000   0.0000   0.0000   0.2863
  12.200   1.3818   0.04609   0.03880  -0.0765  0.0010  1.0000  -5.1645   0.0000   0.0000   0.0000   0.2857
  12.300   1.3832   0.04698   0.03973  -0.0761  0.0010  1.0000  -5.2435   0.0000   0.0000   0.0000   0.2852
  12.400   1.3844   0.04789   0.04067  -0.0757  0.0010  1.0000  -5.3220   0.0000   0.0000   0.0000   0.2847
  12.500   1.3858   0.04879   0.04161  -0.0754  0.0009  1.0000  -5.4015   0.0000   0.0000   0.0000   0.2842
  12.600   1.3870   0.04971   0.04257  -0.0751  0.0009  1.0000  -5.4803   0.0000   0.0000   0.0000   0.2837
  12.700   1.3881   0.05067   0.04357  -0.0747  0.0009  1.0000  -5.5577   0.0000   0.0000   0.0000   0.2832
  12.800   1.3892   0.05163   0.04456  -0.0744  0.0009  1.0000  -5.6359   0.0000   0.0000   0.0000   0.2827
  12.900   1.3904   0.05259   0.04556  -0.0742  0.0009  1.0000  -5.7144   0.0000   0.0000   0.0000   0.2823
  13.000   1.3913   0.05360   0.04661  -0.0739  0.0009  1.0000  -5.7908   0.0000   0.0000   0.0000   0.2819
  13.100   1.3922   0.05462   0.04767  -0.0736  0.0009  1.0000  -5.8671   0.0000   0.0000   0.0000   0.2814
  13.200   1.3932   0.05563   0.04872  -0.0734  0.0009  1.0000  -5.9446   0.0000   0.0000   0.0000   0.2810
  13.300   1.3940   0.05669   0.04981  -0.0732  0.0009  1.0000  -6.0207   0.0000   0.0000   0.0000   0.2806
  13.400   1.3947   0.05777   0.05093  -0.0730  0.0009  1.0000  -6.0958   0.0000   0.0000   0.0000   0.2803
  13.500   1.3955   0.05884   0.05204  -0.0728  0.0009  1.0000  -6.1719   0.0000   0.0000   0.0000   0.2799
  13.600   1.3962   0.05993   0.05317  -0.0726  0.0009  1.0000  -6.2479   0.0000   0.0000   0.0000   0.2795
  13.700   1.3967   0.06106   0.05435  -0.0725  0.0009  1.0000  -6.3215   0.0000   0.0000   0.0000   0.2792
  13.800   1.3973   0.06220   0.05552  -0.0723  0.0009  1.0000  -6.3956   0.0000   0.0000   0.0000   0.2789
  13.900   1.3980   0.06333   0.05670  -0.0722  0.0009  1.0000  -6.4705   0.0000   0.0000   0.0000   0.2785
  14.000   1.3984   0.06450   0.05792  -0.0721  0.0009  1.0000  -6.5436   0.0000   0.0000   0.0000   0.2782
  14.100   1.3987   0.06570   0.05916  -0.0720  0.0009  1.0000  -6.6159   0.0000   0.0000   0.0000   0.2780
  14.200   1.3992   0.06690   0.06039  -0.0720  0.0009  1.0000  -6.6892   0.0000   0.0000   0.0000   0.2777
  14.300   1.3996   0.06811   0.06164  -0.0719  0.0009  1.0000  -6.7622   0.0000   0.0000   0.0000   0.2774
  14.400   1.3997   0.06937   0.06294  -0.0719  0.0009  1.0000  -6.8329   0.0000   0.0000   0.0000   0.2772
  14.500   1.4000   0.07062   0.06424  -0.0719  0.0009  1.0000  -6.9041   0.0000   0.0000   0.0000   0.2769
  14.600   1.4003   0.07187   0.06553  -0.0719  0.0009  1.0000  -6.9764   0.0000   0.0000   0.0000   0.2767
  14.700   1.4004   0.07317   0.06687  -0.0719  0.0009  1.0000  -7.0463   0.0000   0.0000   0.0000   0.2765
  14.800   1.4004   0.07449   0.06823  -0.0719  0.0009  1.0000  -7.1149   0.0000   0.0000   0.0000   0.2763
  14.900   1.4006   0.07581   0.06959  -0.0720  0.0009  1.0000  -7.1848   0.0000   0.0000   0.0000   0.2761
  15.000   1.4007   0.07713   0.07095  -0.0721  0.0009  1.0000  -7.2547   0.0000   0.0000   0.0000   0.2760


