xflr5 v6.59

 Calculated polar for: SF-15

 1 1 Reynolds number fixed          Mach number fixed         

 xtrf =   1.000 (top)        1.000 (bottom)
 Mach =   0.050     Re =     0.160 e 6     Ncrit =   5.000

  alpha     CL        CD       CDp       Cm    Top Xtr Bot Xtr   Cpmin    Chinge    XCp    
 ------- -------- --------- --------- -------- ------- ------- -------- --------- ---------
  -3.000   0.5054   0.01618   0.00820  -0.1811  0.7551  0.0461  -1.8965   0.0000   0.0000   0.0000   0.6127
  -2.900   0.5166   0.01600   0.00796  -0.1812  0.7522  0.0480  -1.8394   0.0000   0.0000   0.0000   0.6046
  -2.800   0.5283   0.01582   0.00769  -0.1812  0.7494  0.0501  -1.7828   0.0000   0.0000   0.0000   0.5968
  -2.700   0.5399   0.01569   0.00756  -0.1813  0.7468  0.0519  -1.7151   0.0000   0.0000   0.0000   0.5893
  -2.600   0.5520   0.01553   0.00735  -0.1814  0.7445  0.0540  -1.6535   0.0000   0.0000   0.0000   0.5820
  -2.500   0.5637   0.01536   0.00708  -0.1815  0.7420  0.0561  -1.5991   0.0000   0.0000   0.0000   0.5750
  -2.400   0.5741   0.01523   0.00697  -0.1814  0.7387  0.0577  -1.5416   0.0000   0.0000   0.0000   0.5687
  -2.300   0.5849   0.01512   0.00687  -0.1813  0.7354  0.0598  -1.4821   0.0000   0.0000   0.0000   0.5626
  -2.200   0.5960   0.01502   0.00671  -0.1813  0.7324  0.0629  -1.4246   0.0000   0.0000   0.0000   0.5565
  -2.100   0.6074   0.01491   0.00659  -0.1814  0.7295  0.0656  -1.3630   0.0000   0.0000   0.0000   0.5507
  -2.000   0.6190   0.01481   0.00644  -0.1814  0.7269  0.0687  -1.3030   0.0000   0.0000   0.0000   0.5450
  -1.900   0.6310   0.01469   0.00627  -0.1815  0.7245  0.0718  -1.2444   0.0000   0.0000   0.0000   0.5394
  -1.800   0.6423   0.01460   0.00617  -0.1815  0.7219  0.0750  -1.1906   0.0000   0.0000   0.0000   0.5342
  -1.700   0.6528   0.01454   0.00610  -0.1814  0.7185  0.0791  -1.1432   0.0000   0.0000   0.0000   0.5293
  -1.600   0.6635   0.01447   0.00604  -0.1813  0.7152  0.0831  -1.0926   0.0000   0.0000   0.0000   0.5245
  -1.500   0.6746   0.01440   0.00594  -0.1813  0.7122  0.0876  -1.0438   0.0000   0.0000   0.0000   0.5197
  -1.400   0.6860   0.01432   0.00586  -0.1813  0.7093  0.0923  -0.9931   0.0000   0.0000   0.0000   0.5151
  -1.300   0.6976   0.01425   0.00576  -0.1814  0.7067  0.0978  -0.9427   0.0000   0.0000   0.0000   0.5107
  -1.200   0.7093   0.01419   0.00566  -0.1814  0.7044  0.1043  -0.9316   0.0000   0.0000   0.0000   0.5063
  -1.100   0.7200   0.01414   0.00563  -0.1814  0.7013  0.1105  -0.9404   0.0000   0.0000   0.0000   0.5022
  -1.000   0.7305   0.01410   0.00560  -0.1813  0.6979  0.1175  -0.9491   0.0000   0.0000   0.0000   0.4983
  -0.900   0.7413   0.01405   0.00557  -0.1812  0.6947  0.1256  -0.9583   0.0000   0.0000   0.0000   0.4944
  -0.800   0.7524   0.01400   0.00551  -0.1812  0.6917  0.1346  -0.9679   0.0000   0.0000   0.0000   0.4906
  -0.700   0.7638   0.01395   0.00545  -0.1812  0.6889  0.1452  -0.9776   0.0000   0.0000   0.0000   0.4869
  -0.600   0.7753   0.01390   0.00540  -0.1813  0.6864  0.1572  -0.9875   0.0000   0.0000   0.0000   0.4833
  -0.500   0.7864   0.01387   0.00537  -0.1812  0.6836  0.1706  -0.9975   0.0000   0.0000   0.0000   0.4798
  -0.400   0.7967   0.01384   0.00539  -0.1811  0.6802  0.1855  -1.0068   0.0000   0.0000   0.0000   0.4765
  -0.300   0.8073   0.01380   0.00540  -0.1810  0.6769  0.2025  -1.0164   0.0000   0.0000   0.0000   0.4733
  -0.200   0.8181   0.01376   0.00539  -0.1810  0.6738  0.2217  -1.0265   0.0000   0.0000   0.0000   0.4701
  -0.100   0.8291   0.01373   0.00538  -0.1810  0.6710  0.2435  -1.0369   0.0000   0.0000   0.0000   0.4670
   0.000   0.8404   0.01369   0.00537  -0.1810  0.6683  0.2677  -1.0474   0.0000   0.0000   0.0000   0.4639
   0.100   0.8515   0.01366   0.00537  -0.1810  0.6657  0.2938  -1.0581   0.0000   0.0000   0.0000   0.4610
   0.200   0.8616   0.01363   0.00541  -0.1808  0.6622  0.3212  -1.0682   0.0000   0.0000   0.0000   0.4581
   0.300   0.8720   0.01360   0.00545  -0.1807  0.6589  0.3511  -1.0785   0.0000   0.0000   0.0000   0.4554
   0.400   0.8825   0.01357   0.00548  -0.1806  0.6557  0.3837  -1.0890   0.0000   0.0000   0.0000   0.4526
   0.500   0.8932   0.01353   0.00550  -0.1805  0.6528  0.4197  -1.1001   0.0000   0.0000   0.0000   0.4499
   0.600   0.9040   0.01349   0.00551  -0.1804  0.6501  0.4582  -1.1113   0.0000   0.0000   0.0000   0.4472
   0.700   0.9147   0.01345   0.00554  -0.1803  0.6473  0.5003  -1.1225   0.0000   0.0000   0.0000   0.4446
   0.800   0.9244   0.01342   0.00561  -0.1800  0.6439  0.5440  -1.1331   0.0000   0.0000   0.0000   0.4421
   0.900   0.9342   0.01337   0.00566  -0.1797  0.6406  0.5913  -1.1440   0.0000   0.0000   0.0000   0.4396
   1.000   0.9438   0.01331   0.00569  -0.1793  0.6374  0.6436  -1.1549   0.0000   0.0000   0.0000   0.4371
   1.100   0.9530   0.01321   0.00569  -0.1788  0.6345  0.7027  -1.1656   0.0000   0.0000   0.0000   0.4346
   1.200   0.9591   0.01292   0.00563  -0.1774  0.6320  0.8193  -1.1748   0.0000   0.0000   0.0000   0.4318
   1.300   0.9709   0.01287   0.00559  -0.1775  0.6289  1.0000  -1.1876   0.0000   0.0000   0.0000   0.4295
   1.400   0.9811   0.01294   0.00564  -0.1773  0.6254  1.0000  -1.1992   0.0000   0.0000   0.0000   0.4273
   1.500   0.9914   0.01301   0.00566  -0.1772  0.6220  1.0000  -1.2112   0.0000   0.0000   0.0000   0.4251
   1.600   1.0020   0.01308   0.00568  -0.1770  0.6189  1.0000  -1.2237   0.0000   0.0000   0.0000   0.4229
   1.700   1.0128   0.01315   0.00569  -0.1769  0.6159  1.0000  -1.2365   0.0000   0.0000   0.0000   0.4208
   1.800   1.0238   0.01322   0.00569  -0.1769  0.6133  1.0000  -1.2495   0.0000   0.0000   0.0000   0.4187
   1.900   1.0337   0.01330   0.00575  -0.1766  0.6097  1.0000  -1.2618   0.0000   0.0000   0.0000   0.4167
   2.000   1.0438   0.01337   0.00580  -0.1764  0.6063  1.0000  -1.2745   0.0000   0.0000   0.0000   0.4147
   2.100   1.0541   0.01344   0.00584  -0.1763  0.6030  1.0000  -1.2875   0.0000   0.0000   0.0000   0.4128
   2.200   1.0646   0.01352   0.00586  -0.1761  0.5999  1.0000  -1.3006   0.0000   0.0000   0.0000   0.4108
   2.300   1.0753   0.01360   0.00588  -0.1760  0.5970  1.0000  -1.3145   0.0000   0.0000   0.0000   0.4089
   2.400   1.0854   0.01368   0.00593  -0.1758  0.5938  1.0000  -1.3279   0.0000   0.0000   0.0000   0.4071
   2.500   1.0952   0.01376   0.00600  -0.1756  0.5903  1.0000  -1.3411   0.0000   0.0000   0.0000   0.4053
   2.600   1.1052   0.01383   0.00605  -0.1753  0.5868  1.0000  -1.3545   0.0000   0.0000   0.0000   0.4035
   2.700   1.1155   0.01392   0.00609  -0.1752  0.5836  1.0000  -1.3686   0.0000   0.0000   0.0000   0.4017
   2.800   1.1259   0.01400   0.00612  -0.1750  0.5807  1.0000  -1.3830   0.0000   0.0000   0.0000   0.4000
   2.900   1.1360   0.01408   0.00618  -0.1748  0.5775  1.0000  -1.3972   0.0000   0.0000   0.0000   0.3983
   3.000   1.1456   0.01417   0.00626  -0.1745  0.5739  1.0000  -1.4109   0.0000   0.0000   0.0000   0.3966
   3.100   1.1554   0.01425   0.00635  -0.1743  0.5704  1.0000  -1.4251   0.0000   0.0000   0.0000   0.3950
   3.200   1.1653   0.01434   0.00641  -0.1740  0.5671  1.0000  -1.4399   0.0000   0.0000   0.0000   0.3933
   3.300   1.1755   0.01443   0.00645  -0.1738  0.5641  1.0000  -1.4549   0.0000   0.0000   0.0000   0.3917
   3.400   1.1853   0.01452   0.00652  -0.1736  0.5609  1.0000  -1.4696   0.0000   0.0000   0.0000   0.3902
   3.500   1.1948   0.01461   0.00661  -0.1733  0.5572  1.0000  -1.4840   0.0000   0.0000   0.0000   0.3886
   3.600   1.2043   0.01470   0.00669  -0.1730  0.5536  1.0000  -1.4989   0.0000   0.0000   0.0000   0.3871
   3.700   1.2141   0.01479   0.00675  -0.1727  0.5502  1.0000  -1.5143   0.0000   0.0000   0.0000   0.3856
   3.800   1.2240   0.01489   0.00681  -0.1725  0.5472  1.0000  -1.5300   0.0000   0.0000   0.0000   0.3841
   3.900   1.2335   0.01499   0.00690  -0.1722  0.5438  1.0000  -1.5452   0.0000   0.0000   0.0000   0.3826
   4.000   1.2427   0.01508   0.00700  -0.1719  0.5400  1.0000  -1.5601   0.0000   0.0000   0.0000   0.3811
   4.100   1.2520   0.01518   0.00708  -0.1715  0.5364  1.0000  -1.5755   0.0000   0.0000   0.0000   0.3797
   4.200   1.2615   0.01528   0.00718  -0.1712  0.5331  1.0000  -1.5916   0.0000   0.0000   0.0000   0.3783
   4.300   1.2713   0.01539   0.00724  -0.1710  0.5300  1.0000  -1.6080   0.0000   0.0000   0.0000   0.3769
   4.400   1.2801   0.01548   0.00736  -0.1706  0.5262  1.0000  -1.6234   0.0000   0.0000   0.0000   0.3755
   4.500   1.2891   0.01559   0.00747  -0.1702  0.5224  1.0000  -1.6390   0.0000   0.0000   0.0000   0.3741
   4.600   1.2983   0.01569   0.00755  -0.1699  0.5188  1.0000  -1.6549   0.0000   0.0000   0.0000   0.3728
   4.700   1.3076   0.01580   0.00763  -0.1695  0.5155  1.0000  -1.6712   0.0000   0.0000   0.0000   0.3714
   4.800   1.3165   0.01591   0.00774  -0.1691  0.5120  1.0000  -1.6876   0.0000   0.0000   0.0000   0.3701
   4.900   1.3252   0.01602   0.00786  -0.1687  0.5081  1.0000  -1.7038   0.0000   0.0000   0.0000   0.3688
   5.000   1.3340   0.01613   0.00797  -0.1683  0.5043  1.0000  -1.7201   0.0000   0.0000   0.0000   0.3675
   5.100   1.3429   0.01625   0.00806  -0.1679  0.5008  1.0000  -1.7367   0.0000   0.0000   0.0000   0.3662
   5.200   1.3517   0.01637   0.00816  -0.1675  0.4974  1.0000  -1.7532   0.0000   0.0000   0.0000   0.3649
   5.300   1.3600   0.01648   0.00830  -0.1670  0.4934  1.0000  -1.7692   0.0000   0.0000   0.0000   0.3637
   5.400   1.3684   0.01660   0.00844  -0.1665  0.4895  1.0000  -1.7853   0.0000   0.0000   0.0000   0.3624
   5.500   1.3769   0.01673   0.00855  -0.1661  0.4859  1.0000  -1.8023   0.0000   0.0000   0.0000   0.3612
   5.600   1.3854   0.01686   0.00866  -0.1656  0.4824  1.0000  -1.8194   0.0000   0.0000   0.0000   0.3599
   5.700   1.3934   0.01698   0.00881  -0.1651  0.4784  1.0000  -1.8359   0.0000   0.0000   0.0000   0.3587
   5.800   1.4014   0.01710   0.00894  -0.1645  0.4744  1.0000  -1.8525   0.0000   0.0000   0.0000   0.3575
   5.900   1.4094   0.01724   0.00906  -0.1640  0.4707  1.0000  -1.8693   0.0000   0.0000   0.0000   0.3563
   6.000   1.4175   0.01738   0.00918  -0.1635  0.4671  1.0000  -1.8860   0.0000   0.0000   0.0000   0.3551
   6.100   1.4251   0.01750   0.00933  -0.1629  0.4630  1.0000  -1.9023   0.0000   0.0000   0.0000   0.3539
   6.200   1.4327   0.01764   0.00948  -0.1622  0.4589  1.0000  -1.9185   0.0000   0.0000   0.0000   0.3527
   6.300   1.4402   0.01779   0.00961  -0.1616  0.4552  1.0000  -1.9350   0.0000   0.0000   0.0000   0.3515
   6.400   1.4477   0.01793   0.00975  -0.1610  0.4515  1.0000  -1.9521   0.0000   0.0000   0.0000   0.3504
   6.500   1.4549   0.01807   0.00994  -0.1603  0.4473  1.0000  -1.9687   0.0000   0.0000   0.0000   0.3492
   6.600   1.4619   0.01822   0.01009  -0.1596  0.4433  1.0000  -1.9853   0.0000   0.0000   0.0000   0.3480
   6.700   1.4688   0.01838   0.01023  -0.1589  0.4395  1.0000  -2.0020   0.0000   0.0000   0.0000   0.3468
   6.800   1.4757   0.01853   0.01040  -0.1582  0.4356  1.0000  -2.0184   0.0000   0.0000   0.0000   0.3457
   6.900   1.4823   0.01869   0.01057  -0.1574  0.4315  1.0000  -2.0346   0.0000   0.0000   0.0000   0.3445
   7.000   1.4885   0.01885   0.01073  -0.1566  0.4275  1.0000  -2.0505   0.0000   0.0000   0.0000   0.3434
   7.200   1.4999   0.01917   0.01107  -0.1547  0.4198  1.0000  -2.0810   0.0000   0.0000   0.0000   0.3410
   7.300   1.5050   0.01934   0.01125  -0.1537  0.4157  1.0000  -2.0958   0.0000   0.0000   0.0000   0.3398
   7.400   1.5101   0.01952   0.01142  -0.1526  0.4119  1.0000  -2.1105   0.0000   0.0000   0.0000   0.3386
   7.500   1.5153   0.01970   0.01160  -0.1516  0.4083  1.0000  -2.1260   0.0000   0.0000   0.0000   0.3374
   7.600   1.5199   0.01988   0.01180  -0.1505  0.4035  1.0000  -2.1410   0.0000   0.0000   0.0000   0.3362
   7.700   1.5229   0.02009   0.01199  -0.1492  0.3975  1.0000  -2.1542   0.0000   0.0000   0.0000   0.3350
   7.800   1.5248   0.02033   0.01223  -0.1476  0.3900  1.0000  -2.1663   0.0000   0.0000   0.0000   0.3337
   7.900   1.5253   0.02061   0.01246  -0.1459  0.3821  1.0000  -2.1769   0.0000   0.0000   0.0000   0.3323
   8.000   1.5261   0.02088   0.01272  -0.1442  0.3732  1.0000  -2.1877   0.0000   0.0000   0.0000   0.3310
   8.100   1.5262   0.02120   0.01298  -0.1425  0.3644  1.0000  -2.1977   0.0000   0.0000   0.0000   0.3297
   8.200   1.5259   0.02155   0.01328  -0.1407  0.3550  1.0000  -2.2073   0.0000   0.0000   0.0000   0.3284
   8.300   1.5261   0.02191   0.01360  -0.1391  0.3452  1.0000  -2.2173   0.0000   0.0000   0.0000   0.3272
   8.400   1.5259   0.02230   0.01394  -0.1374  0.3359  1.0000  -2.2268   0.0000   0.0000   0.0000   0.3259
   8.500   1.5253   0.02273   0.01431  -0.1357  0.3269  1.0000  -2.2766   0.0000   0.0000   0.0000   0.3247
   8.600   1.5259   0.02314   0.01468  -0.1343  0.3175  1.0000  -2.3338   0.0000   0.0000   0.0000   0.3235
   8.700   1.5266   0.02356   0.01507  -0.1329  0.3093  1.0000  -2.3913   0.0000   0.0000   0.0000   0.3224
   8.800   1.5275   0.02399   0.01546  -0.1315  0.3021  1.0000  -2.4506   0.0000   0.0000   0.0000   0.3213
   8.900   1.5306   0.02436   0.01583  -0.1305  0.2965  1.0000  -2.5200   0.0000   0.0000   0.0000   0.3202
   9.000   1.5337   0.02472   0.01620  -0.1295  0.2919  1.0000  -2.5902   0.0000   0.0000   0.0000   0.3192
   9.100   1.5361   0.02513   0.01659  -0.1284  0.2878  1.0000  -2.6572   0.0000   0.0000   0.0000   0.3182
   9.200   1.5401   0.02547   0.01696  -0.1275  0.2833  1.0000  -2.7325   0.0000   0.0000   0.0000   0.3172
   9.300   1.5432   0.02586   0.01736  -0.1265  0.2789  1.0000  -2.8037   0.0000   0.0000   0.0000   0.3163
   9.400   1.5456   0.02630   0.01779  -0.1255  0.2750  1.0000  -2.8711   0.0000   0.0000   0.0000   0.3153
   9.500   1.5494   0.02667   0.01820  -0.1246  0.2708  1.0000  -2.9479   0.0000   0.0000   0.0000   0.3143
   9.600   1.5524   0.02709   0.01863  -0.1237  0.2667  1.0000  -3.0191   0.0000   0.0000   0.0000   0.3134
   9.700   1.5547   0.02755   0.01910  -0.1227  0.2630  1.0000  -3.0867   0.0000   0.0000   0.0000   0.3125
   9.800   1.5585   0.02795   0.01952  -0.1219  0.2589  1.0000  -3.1620   0.0000   0.0000   0.0000   0.3116
   9.900   1.5614   0.02840   0.01999  -0.1210  0.2549  1.0000  -3.2327   0.0000   0.0000   0.0000   0.3107
  10.000   1.5623   0.02896   0.02054  -0.1200  0.2501  1.0000  -3.2936   0.0000   0.0000   0.0000   0.3098
  10.100   1.5638   0.02951   0.02109  -0.1190  0.2431  1.0000  -3.3568   0.0000   0.0000   0.0000   0.3089
  10.200   1.5633   0.03019   0.02173  -0.1178  0.2357  1.0000  -3.4102   0.0000   0.0000   0.0000   0.3080
  10.300   1.5623   0.03091   0.02242  -0.1166  0.2276  1.0000  -3.4609   0.0000   0.0000   0.0000   0.3071
  10.400   1.5617   0.03164   0.02312  -0.1156  0.2189  1.0000  -3.5137   0.0000   0.0000   0.0000   0.3062
  10.500   1.5608   0.03241   0.02385  -0.1145  0.2109  1.0000  -3.5640   0.0000   0.0000   0.0000   0.3054
  10.600   1.5602   0.03317   0.02459  -0.1135  0.2038  1.0000  -3.6163   0.0000   0.0000   0.0000   0.3046
  10.700   1.5620   0.03379   0.02522  -0.1127  0.1988  1.0000  -3.6808   0.0000   0.0000   0.0000   0.3038
  10.800   1.5635   0.03444   0.02588  -0.1119  0.1942  1.0000  -3.7435   0.0000   0.0000   0.0000   0.3030
  10.900   1.5649   0.03511   0.02656  -0.1111  0.1901  1.0000  -3.8049   0.0000   0.0000   0.0000   0.3022
  11.000   1.5669   0.03575   0.02722  -0.1104  0.1856  1.0000  -3.8693   0.0000   0.0000   0.0000   0.3015
  11.100   1.5670   0.03654   0.02800  -0.1096  0.1804  1.0000  -3.9236   0.0000   0.0000   0.0000   0.3008
  11.200   1.5663   0.03742   0.02888  -0.1087  0.1724  1.0000  -3.9726   0.0000   0.0000   0.0000   0.3001
  11.300   1.5642   0.03843   0.02984  -0.1078  0.1632  1.0000  -4.0143   0.0000   0.0000   0.0000   0.2994
  11.400   1.5614   0.03953   0.03089  -0.1070  0.1533  1.0000  -4.0519   0.0000   0.0000   0.0000   0.2987
  11.500   1.5585   0.04067   0.03198  -0.1061  0.1433  1.0000  -4.0883   0.0000   0.0000   0.0000   0.2981
  11.600   1.5565   0.04175   0.03302  -0.1054  0.1348  1.0000  -4.1294   0.0000   0.0000   0.0000   0.2975
  11.700   1.5554   0.04277   0.03404  -0.1047  0.1279  1.0000  -4.1742   0.0000   0.0000   0.0000   0.2969
  11.800   1.5544   0.04381   0.03506  -0.1041  0.1206  1.0000  -4.2189   0.0000   0.0000   0.0000   0.2964
  11.900   1.5519   0.04502   0.03624  -0.1034  0.1115  1.0000  -4.2552   0.0000   0.0000   0.0000   0.2959
  12.000   1.5467   0.04654   0.03767  -0.1027  0.0987  1.0000  -4.2767   0.0000   0.0000   0.0000   0.2954
  12.100   1.5369   0.04856   0.03954  -0.1019  0.0804  1.0000  -4.2749   0.0000   0.0000   0.0000   0.2951
  12.200   1.5269   0.05068   0.04153  -0.1012  0.0634  1.0000  -4.2705   0.0000   0.0000   0.0000   0.2949
  12.300   1.5171   0.05285   0.04359  -0.1006  0.0483  1.0000  -4.2661   0.0000   0.0000   0.0000   0.2947
  12.400   1.5076   0.05507   0.04571  -0.1001  0.0346  1.0000  -4.2622   0.0000   0.0000   0.0000   0.2946
  12.500   1.4985   0.05731   0.04787  -0.0997  0.0222  1.0000  -4.2597   0.0000   0.0000   0.0000   0.2946
  12.600   1.4902   0.05953   0.05003  -0.0994  0.0117  1.0000  -4.2609   0.0000   0.0000   0.0000   0.2945
  12.700   1.4839   0.06155   0.05203  -0.0992  0.0063  1.0000  -4.2737   0.0000   0.0000   0.0000   0.2945
  12.800   1.4817   0.06309   0.05360  -0.0991  0.0049  1.0000  -4.3100   0.0000   0.0000   0.0000   0.2943
  12.900   1.4809   0.06446   0.05502  -0.0990  0.0043  1.0000  -4.3547   0.0000   0.0000   0.0000   0.2940
  13.000   1.4810   0.06573   0.05634  -0.0989  0.0040  1.0000  -4.4043   0.0000   0.0000   0.0000   0.2937
  13.100   1.4813   0.06700   0.05766  -0.0988  0.0038  1.0000  -4.4549   0.0000   0.0000   0.0000   0.2934
  13.200   1.4816   0.06828   0.05900  -0.0988  0.0037  1.0000  -4.5055   0.0000   0.0000   0.0000   0.2932
  13.300   1.4817   0.06959   0.06037  -0.0987  0.0035  1.0000  -4.5554   0.0000   0.0000   0.0000   0.2929
  13.400   1.4818   0.07092   0.06176  -0.0987  0.0034  1.0000  -4.6058   0.0000   0.0000   0.0000   0.2927
  13.500   1.4819   0.07228   0.06318  -0.0988  0.0033  1.0000  -4.6556   0.0000   0.0000   0.0000   0.2925
  13.600   1.4817   0.07368   0.06464  -0.0988  0.0032  1.0000  -4.7048   0.0000   0.0000   0.0000   0.2924
  13.700   1.4816   0.07508   0.06611  -0.0989  0.0032  1.0000  -4.7542   0.0000   0.0000   0.0000   0.2922
  13.800   1.4813   0.07654   0.06762  -0.0990  0.0031  1.0000  -4.8023   0.0000   0.0000   0.0000   0.2921
  13.900   1.4809   0.07801   0.06916  -0.0991  0.0030  1.0000  -4.8499   0.0000   0.0000   0.0000   0.2919
  14.000   1.4805   0.07951   0.07072  -0.0993  0.0030  1.0000  -4.8973   0.0000   0.0000   0.0000   0.2918
  14.100   1.4798   0.08105   0.07234  -0.0995  0.0029  1.0000  -4.9434   0.0000   0.0000   0.0000   0.2918
  14.200   1.4792   0.08261   0.07397  -0.0997  0.0029  1.0000  -4.9890   0.0000   0.0000   0.0000   0.2917
  14.300   1.4784   0.08421   0.07563  -0.0999  0.0028  1.0000  -5.0334   0.0000   0.0000   0.0000   0.2917
  14.400   1.4774   0.08584   0.07733  -0.1002  0.0028  1.0000  -5.0765   0.0000   0.0000   0.0000   0.2917
  14.500   1.4765   0.08748   0.07903  -0.1005  0.0028  1.0000  -5.1194   0.0000   0.0000   0.0000   0.2917
  14.600   1.4754   0.08916   0.08078  -0.1008  0.0027  1.0000  -5.1607   0.0000   0.0000   0.0000   0.2918
  14.700   1.4742   0.09086   0.08255  -0.1012  0.0027  1.0000  -5.2012   0.0000   0.0000   0.0000   0.2919
  14.800   1.4729   0.09259   0.08435  -0.1016  0.0027  1.0000  -5.2406   0.0000   0.0000   0.0000   0.2920
  14.900   1.4715   0.09436   0.08619  -0.1020  0.0026  1.0000  -5.2786   0.0000   0.0000   0.0000   0.2921
  15.000   1.4701   0.09613   0.08802  -0.1024  0.0026  1.0000  -5.3161   0.0000   0.0000   0.0000   0.2923


