xflr5 v6.59

 Calculated polar for: SF-14

 1 1 Reynolds number fixed          Mach number fixed         

 xtrf =   1.000 (top)        1.000 (bottom)
 Mach =   0.050     Re =     0.100 e 6     Ncrit =   5.000

  alpha     CL        CD       CDp       Cm    Top Xtr Bot Xtr   Cpmin    Chinge    XCp    
 ------- -------- --------- --------- -------- ------- ------- -------- --------- ---------
  -3.000   0.3855   0.02225   0.01332  -0.1603  0.7669  0.0554  -1.8737   0.0000   0.0000   0.0000   0.6708
  -2.900   0.3989   0.02186   0.01284  -0.1607  0.7651  0.0576  -1.8165   0.0000   0.0000   0.0000   0.6577
  -2.800   0.4126   0.02155   0.01246  -0.1612  0.7634  0.0598  -1.7533   0.0000   0.0000   0.0000   0.6452
  -2.700   0.4196   0.02133   0.01216  -0.1605  0.7595  0.0613  -1.7195   0.0000   0.0000   0.0000   0.6367
  -2.600   0.4288   0.02099   0.01168  -0.1601  0.7561  0.0630  -1.6879   0.0000   0.0000   0.0000   0.6273
  -2.500   0.4391   0.02072   0.01138  -0.1600  0.7531  0.0646  -1.6378   0.0000   0.0000   0.0000   0.6180
  -2.400   0.4504   0.02053   0.01115  -0.1600  0.7505  0.0669  -1.5782   0.0000   0.0000   0.0000   0.6088
  -2.300   0.4627   0.02026   0.01073  -0.1602  0.7482  0.0705  -1.5271   0.0000   0.0000   0.0000   0.5994
  -2.200   0.4752   0.02003   0.01050  -0.1605  0.7461  0.0732  -1.4635   0.0000   0.0000   0.0000   0.5906
  -2.100   0.4884   0.01976   0.01017  -0.1608  0.7443  0.0762  -1.4054   0.0000   0.0000   0.0000   0.5819
  -2.000   0.5003   0.01950   0.00982  -0.1609  0.7421  0.0792  -1.3547   0.0000   0.0000   0.0000   0.5740
  -1.900   0.5075   0.01946   0.00981  -0.1602  0.7382  0.0818  -1.3054   0.0000   0.0000   0.0000   0.5680
  -1.800   0.5169   0.01934   0.00964  -0.1599  0.7350  0.0859  -1.2586   0.0000   0.0000   0.0000   0.5614
  -1.700   0.5274   0.01920   0.00951  -0.1598  0.7321  0.0894  -1.2109   0.0000   0.0000   0.0000   0.5549
  -1.600   0.5388   0.01903   0.00929  -0.1598  0.7296  0.0937  -1.1648   0.0000   0.0000   0.0000   0.5483
  -1.500   0.5508   0.01885   0.00910  -0.1600  0.7274  0.0980  -1.1149   0.0000   0.0000   0.0000   0.5419
  -1.400   0.5634   0.01869   0.00887  -0.1602  0.7254  0.1040  -1.0651   0.0000   0.0000   0.0000   0.5356
  -1.300   0.5764   0.01852   0.00869  -0.1605  0.7236  0.1096  -1.0112   0.0000   0.0000   0.0000   0.5296
  -1.200   0.5847   0.01847   0.00864  -0.1600  0.7203  0.1146  -0.9706   0.0000   0.0000   0.0000   0.5246
  -1.100   0.5932   0.01843   0.00858  -0.1596  0.7169  0.1206  -0.9284   0.0000   0.0000   0.0000   0.5197
  -1.000   0.6033   0.01835   0.00852  -0.1594  0.7138  0.1271  -0.9235   0.0000   0.0000   0.0000   0.5148
  -0.900   0.6141   0.01826   0.00841  -0.1593  0.7112  0.1345  -0.9316   0.0000   0.0000   0.0000   0.5099
  -0.800   0.6256   0.01815   0.00830  -0.1594  0.7088  0.1433  -0.9402   0.0000   0.0000   0.0000   0.5050
  -0.700   0.6377   0.01804   0.00817  -0.1595  0.7067  0.1530  -0.9492   0.0000   0.0000   0.0000   0.5003
  -0.600   0.6502   0.01792   0.00804  -0.1597  0.7048  0.1640  -0.9585   0.0000   0.0000   0.0000   0.4956
  -0.500   0.6604   0.01786   0.00800  -0.1596  0.7022  0.1752  -0.9662   0.0000   0.0000   0.0000   0.4915
  -0.400   0.6683   0.01787   0.00803  -0.1590  0.6988  0.1861  -0.9723   0.0000   0.0000   0.0000   0.4876
  -0.300   0.6778   0.01784   0.00803  -0.1588  0.6958  0.1995  -0.9795   0.0000   0.0000   0.0000   0.4838
  -0.200   0.6884   0.01779   0.00799  -0.1587  0.6930  0.2155  -0.9876   0.0000   0.0000   0.0000   0.4799
  -0.100   0.6998   0.01771   0.00794  -0.1588  0.6906  0.2341  -0.9965   0.0000   0.0000   0.0000   0.4761
   0.000   0.7119   0.01762   0.00786  -0.1589  0.6884  0.2567  -1.0058   0.0000   0.0000   0.0000   0.4723
   0.100   0.7245   0.01750   0.00777  -0.1592  0.6865  0.2847  -1.0155   0.0000   0.0000   0.0000   0.4687
   0.200   0.7368   0.01738   0.00770  -0.1595  0.6845  0.3199  -1.0251   0.0000   0.0000   0.0000   0.4653
   0.300   0.7445   0.01735   0.00780  -0.1590  0.6811  0.3598  -1.0313   0.0000   0.0000   0.0000   0.4622
   0.400   0.7532   0.01719   0.00788  -0.1587  0.6781  0.4329  -1.0384   0.0000   0.0000   0.0000   0.4592
   0.500   0.7561   0.01642   0.00799  -0.1568  0.6756  0.7421  -1.0427   0.0000   0.0000   0.0000   0.4557
   0.700   0.7846   0.01624   0.00780  -0.1578  0.6708  1.0000  -1.0639   0.0000   0.0000   0.0000   0.4492
   0.800   0.7967   0.01627   0.00773  -0.1579  0.6687  1.0000  -1.0733   0.0000   0.0000   0.0000   0.4462
   0.900   0.8094   0.01630   0.00766  -0.1582  0.6669  1.0000  -1.0832   0.0000   0.0000   0.0000   0.4433
   1.000   0.8181   0.01642   0.00772  -0.1578  0.6640  1.0000  -1.0905   0.0000   0.0000   0.0000   0.4405
   1.100   0.8266   0.01653   0.00780  -0.1573  0.6610  1.0000  -1.0975   0.0000   0.0000   0.0000   0.4379
   1.200   0.8361   0.01663   0.00785  -0.1570  0.6582  1.0000  -1.1054   0.0000   0.0000   0.0000   0.4353
   1.300   0.8465   0.01670   0.00786  -0.1569  0.6556  1.0000  -1.1140   0.0000   0.0000   0.0000   0.4327
   1.400   0.8575   0.01676   0.00786  -0.1569  0.6533  1.0000  -1.1231   0.0000   0.0000   0.0000   0.4301
   1.500   0.8692   0.01681   0.00784  -0.1570  0.6512  1.0000  -1.1326   0.0000   0.0000   0.0000   0.4276
   1.600   0.8815   0.01685   0.00781  -0.1571  0.6494  1.0000  -1.1426   0.0000   0.0000   0.0000   0.4252
   1.700   0.8920   0.01694   0.00785  -0.1570  0.6471  1.0000  -1.1512   0.0000   0.0000   0.0000   0.4229
   1.800   0.8997   0.01707   0.00798  -0.1565  0.6441  1.0000  -1.1577   0.0000   0.0000   0.0000   0.4206
   1.900   0.9086   0.01719   0.00807  -0.1561  0.6413  1.0000  -1.1652   0.0000   0.0000   0.0000   0.4184
   2.000   0.9184   0.01728   0.00813  -0.1559  0.6387  1.0000  -1.1737   0.0000   0.0000   0.0000   0.4162
   2.100   0.9290   0.01736   0.00816  -0.1558  0.6364  1.0000  -1.1828   0.0000   0.0000   0.0000   0.4140
   2.200   0.9403   0.01742   0.00817  -0.1558  0.6343  1.0000  -1.1924   0.0000   0.0000   0.0000   0.4119
   2.300   0.9521   0.01748   0.00817  -0.1560  0.6324  1.0000  -1.2025   0.0000   0.0000   0.0000   0.4098
   2.400   0.9646   0.01753   0.00816  -0.1562  0.6307  1.0000  -1.2130   0.0000   0.0000   0.0000   0.4078
   2.500   0.9719   0.01768   0.00832  -0.1556  0.6278  1.0000  -1.2196   0.0000   0.0000   0.0000   0.4058
   2.600   0.9800   0.01782   0.00845  -0.1551  0.6250  1.0000  -1.2267   0.0000   0.0000   0.0000   0.4039
   2.700   0.9891   0.01794   0.00855  -0.1548  0.6224  1.0000  -1.2347   0.0000   0.0000   0.0000   0.4020
   2.800   0.9991   0.01804   0.00863  -0.1546  0.6201  1.0000  -1.2434   0.0000   0.0000   0.0000   0.4001
   2.900   1.0098   0.01812   0.00868  -0.1545  0.6180  1.0000  -1.2530   0.0000   0.0000   0.0000   0.3983
   3.000   1.0212   0.01819   0.00871  -0.1546  0.6161  1.0000  -1.2631   0.0000   0.0000   0.0000   0.3965
   3.100   1.0332   0.01825   0.00877  -0.1548  0.6143  1.0000  -1.2737   0.0000   0.0000   0.0000   0.3948
   3.200   1.0437   0.01835   0.00884  -0.1547  0.6123  1.0000  -1.2831   0.0000   0.0000   0.0000   0.3930
   3.300   1.0506   0.01852   0.00904  -0.1540  0.6094  1.0000  -1.2896   0.0000   0.0000   0.0000   0.3913
   3.400   1.0587   0.01867   0.00919  -0.1535  0.6068  1.0000  -1.2972   0.0000   0.0000   0.0000   0.3896
   3.500   1.0679   0.01879   0.00931  -0.1532  0.6044  1.0000  -1.3056   0.0000   0.0000   0.0000   0.3879
   3.600   1.0779   0.01889   0.00940  -0.1531  0.6022  1.0000  -1.3147   0.0000   0.0000   0.0000   0.3863
   3.700   1.0887   0.01898   0.00947  -0.1530  0.6002  1.0000  -1.3247   0.0000   0.0000   0.0000   0.3847
   3.800   1.1001   0.01906   0.00952  -0.1531  0.5984  1.0000  -1.3353   0.0000   0.0000   0.0000   0.3832
   3.900   1.1121   0.01913   0.00956  -0.1533  0.5968  1.0000  -1.3463   0.0000   0.0000   0.0000   0.3817
   4.000   1.1209   0.01928   0.00971  -0.1529  0.5946  1.0000  -1.3548   0.0000   0.0000   0.0000   0.3802
   4.100   1.1275   0.01946   0.00993  -0.1522  0.5919  1.0000  -1.3615   0.0000   0.0000   0.0000   0.3786
   4.200   1.1355   0.01962   0.01010  -0.1517  0.5894  1.0000  -1.3692   0.0000   0.0000   0.0000   0.3771
   4.300   1.1445   0.01975   0.01028  -0.1514  0.5871  1.0000  -1.3779   0.0000   0.0000   0.0000   0.3756
   4.400   1.1545   0.01986   0.01039  -0.1512  0.5850  1.0000  -1.3875   0.0000   0.0000   0.0000   0.3742
   4.500   1.1652   0.01996   0.01048  -0.1512  0.5830  1.0000  -1.3980   0.0000   0.0000   0.0000   0.3728
   4.600   1.1766   0.02005   0.01055  -0.1512  0.5813  1.0000  -1.4090   0.0000   0.0000   0.0000   0.3715
   4.700   1.1886   0.02013   0.01062  -0.1514  0.5798  1.0000  -1.4205   0.0000   0.0000   0.0000   0.3702
   4.800   1.1963   0.02031   0.01082  -0.1509  0.5775  1.0000  -1.4284   0.0000   0.0000   0.0000   0.3688
   4.900   1.2023   0.02051   0.01107  -0.1501  0.5749  1.0000  -1.4350   0.0000   0.0000   0.0000   0.3674
   5.000   1.2098   0.02068   0.01127  -0.1495  0.5725  1.0000  -1.4427   0.0000   0.0000   0.0000   0.3660
   5.100   1.2185   0.02083   0.01144  -0.1492  0.5703  1.0000  -1.4519   0.0000   0.0000   0.0000   0.3647
   5.200   1.2282   0.02096   0.01158  -0.1490  0.5682  1.0000  -1.4619   0.0000   0.0000   0.0000   0.3634
   5.300   1.2387   0.02107   0.01169  -0.1489  0.5664  1.0000  -1.4726   0.0000   0.0000   0.0000   0.3622
   5.400   1.2501   0.02116   0.01182  -0.1490  0.5647  1.0000  -1.4840   0.0000   0.0000   0.0000   0.3610
   5.500   1.2622   0.02125   0.01190  -0.1492  0.5632  1.0000  -1.4961   0.0000   0.0000   0.0000   0.3599
   5.600   1.2693   0.02145   0.01214  -0.1486  0.5610  1.0000  -1.5039   0.0000   0.0000   0.0000   0.3586
   5.700   1.2744   0.02168   0.01243  -0.1476  0.5584  1.0000  -1.5104   0.0000   0.0000   0.0000   0.3573
   5.800   1.2811   0.02188   0.01267  -0.1469  0.5561  1.0000  -1.5183   0.0000   0.0000   0.0000   0.3560
   5.900   1.2892   0.02205   0.01287  -0.1465  0.5539  1.0000  -1.5274   0.0000   0.0000   0.0000   0.3548
   6.000   1.2985   0.02219   0.01304  -0.1462  0.5519  1.0000  -1.5375   0.0000   0.0000   0.0000   0.3536
   6.100   1.3089   0.02231   0.01318  -0.1461  0.5500  1.0000  -1.5485   0.0000   0.0000   0.0000   0.3525
   6.200   1.3202   0.02241   0.01329  -0.1462  0.5484  1.0000  -1.5606   0.0000   0.0000   0.0000   0.3515
   6.300   1.3324   0.02251   0.01339  -0.1464  0.5469  1.0000  -1.5737   0.0000   0.0000   0.0000   0.3505
   6.400   1.3393   0.02271   0.01365  -0.1458  0.5448  1.0000  -1.5939   0.0000   0.0000   0.0000   0.3493
   6.500   1.3430   0.02298   0.01399  -0.1446  0.5423  1.0000  -1.6262   0.0000   0.0000   0.0000   0.3480
   6.600   1.3486   0.02321   0.01431  -0.1437  0.5399  1.0000  -1.6631   0.0000   0.0000   0.0000   0.3467
   6.700   1.3559   0.02340   0.01455  -0.1432  0.5378  1.0000  -1.7042   0.0000   0.0000   0.0000   0.3456
   6.800   1.3647   0.02356   0.01474  -0.1428  0.5358  1.0000  -1.7493   0.0000   0.0000   0.0000   0.3445
   6.900   1.3749   0.02369   0.01491  -0.1427  0.5340  1.0000  -1.7977   0.0000   0.0000   0.0000   0.3435
   7.000   1.3861   0.02381   0.01504  -0.1428  0.5323  1.0000  -1.8503   0.0000   0.0000   0.0000   0.3425
   7.100   1.3985   0.02390   0.01516  -0.1431  0.5309  1.0000  -1.9107   0.0000   0.0000   0.0000   0.3417
   7.200   1.4048   0.02413   0.01545  -0.1423  0.5288  1.0000  -1.9571   0.0000   0.0000   0.0000   0.3405
   7.300   1.4067   0.02445   0.01585  -0.1409  0.5262  1.0000  -2.0121   0.0000   0.0000   0.0000   0.3392
   7.400   1.4110   0.02471   0.01618  -0.1398  0.5239  1.0000  -2.0786   0.0000   0.0000   0.0000   0.3380
   7.500   1.4173   0.02492   0.01645  -0.1391  0.5217  1.0000  -2.1554   0.0000   0.0000   0.0000   0.3369
   7.600   1.4257   0.02510   0.01667  -0.1387  0.5198  1.0000  -2.2466   0.0000   0.0000   0.0000   0.3359
   7.700   1.4356   0.02524   0.01689  -0.1385  0.5180  1.0000  -2.3561   0.0000   0.0000   0.0000   0.3349
   7.800   1.4471   0.02535   0.01704  -0.1386  0.5163  1.0000  -2.4748   0.0000   0.0000   0.0000   0.3341
   7.900   1.4602   0.02544   0.01716  -0.1390  0.5148  1.0000  -2.6058   0.0000   0.0000   0.0000   0.3333
   8.000   1.4634   0.02574   0.01754  -0.1378  0.5126  1.0000  -2.6833   0.0000   0.0000   0.0000   0.3321
   8.100   1.4633   0.02610   0.01799  -0.1360  0.5101  1.0000  -2.7436   0.0000   0.0000   0.0000   0.3308
   8.200   1.4662   0.02640   0.01836  -0.1347  0.5078  1.0000  -2.8211   0.0000   0.0000   0.0000   0.3295
   8.300   1.4714   0.02663   0.01866  -0.1338  0.5056  1.0000  -2.9127   0.0000   0.0000   0.0000   0.3284
   8.400   1.4792   0.02681   0.01889  -0.1333  0.5036  1.0000  -3.0200   0.0000   0.0000   0.0000   0.3275
   8.500   1.4906   0.02688   0.01901  -0.1333  0.5014  1.0000  -3.1500   0.0000   0.0000   0.0000   0.3266
   8.600   1.5064   0.02677   0.01891  -0.1340  0.4984  1.0000  -3.3092   0.0000   0.0000   0.0000   0.3259
   8.700   1.4979   0.02721   0.01944  -0.1308  0.4953  1.0000  -3.3237   0.0000   0.0000   0.0000   0.3242
   8.800   1.4944   0.02751   0.01980  -0.1284  0.4918  1.0000  -3.3684   0.0000   0.0000   0.0000   0.3226
   8.900   1.5000   0.02750   0.01981  -0.1273  0.4873  1.0000  -3.4699   0.0000   0.0000   0.0000   0.3214
   9.000   1.5102   0.02730   0.01963  -0.1269  0.4821  1.0000  -3.6032   0.0000   0.0000   0.0000   0.3204
   9.100   1.5022   0.02775   0.02015  -0.1239  0.4784  1.0000  -3.6213   0.0000   0.0000   0.0000   0.3187
   9.200   1.5012   0.02793   0.02037  -0.1219  0.4736  1.0000  -3.6841   0.0000   0.0000   0.0000   0.3172
   9.300   1.5108   0.02769   0.02010  -0.1213  0.4674  1.0000  -3.8146   0.0000   0.0000   0.0000   0.3161
   9.400   1.5027   0.02819   0.02069  -0.1185  0.4635  1.0000  -3.8319   0.0000   0.0000   0.0000   0.3145
   9.500   1.5010   0.02845   0.02098  -0.1165  0.4585  1.0000  -3.8903   0.0000   0.0000   0.0000   0.3131
   9.600   1.5085   0.02834   0.02085  -0.1157  0.4526  1.0000  -4.0083   0.0000   0.0000   0.0000   0.3120
   9.700   1.5013   0.02890   0.02150  -0.1131  0.4484  1.0000  -4.0300   0.0000   0.0000   0.0000   0.3105
   9.800   1.4996   0.02921   0.02185  -0.1113  0.4430  1.0000  -4.0885   0.0000   0.0000   0.0000   0.3092
   9.900   1.5014   0.02934   0.02198  -0.1099  0.4368  1.0000  -4.1706   0.0000   0.0000   0.0000   0.3080
  10.000   1.4952   0.02993   0.02263  -0.1076  0.4315  1.0000  -4.1996   0.0000   0.0000   0.0000   0.3066
  10.100   1.4973   0.03003   0.02269  -0.1062  0.4238  1.0000  -4.2842   0.0000   0.0000   0.0000   0.3053
  10.200   1.4899   0.03075   0.02349  -0.1040  0.4182  1.0000  -4.3048   0.0000   0.0000   0.0000   0.3040
  10.300   1.4898   0.03099   0.02369  -0.1024  0.4098  1.0000  -4.3754   0.0000   0.0000   0.0000   0.3028
  10.400   1.4826   0.03179   0.02456  -0.1004  0.4035  1.0000  -4.3963   0.0000   0.0000   0.0000   0.3016
  10.500   1.4802   0.03224   0.02499  -0.0987  0.3948  1.0000  -4.4511   0.0000   0.0000   0.0000   0.3004
  10.600   1.4739   0.03305   0.02585  -0.0969  0.3874  1.0000  -4.4780   0.0000   0.0000   0.0000   0.2992
  10.700   1.4698   0.03373   0.02652  -0.0953  0.3785  1.0000  -4.5199   0.0000   0.0000   0.0000   0.2981
  10.800   1.4657   0.03443   0.02720  -0.0937  0.3688  1.0000  -4.5623   0.0000   0.0000   0.0000   0.2970
  10.900   1.4601   0.03535   0.02814  -0.0921  0.3596  1.0000  -4.5923   0.0000   0.0000   0.0000   0.2960
  11.000   1.4553   0.03623   0.02901  -0.0907  0.3490  1.0000  -4.6286   0.0000   0.0000   0.0000   0.2950
  11.100   1.4506   0.03713   0.02989  -0.0893  0.3373  1.0000  -4.6653   0.0000   0.0000   0.0000   0.2941
  11.200   1.4457   0.03810   0.03081  -0.0880  0.3245  1.0000  -4.7003   0.0000   0.0000   0.0000   0.2931
  11.300   1.4407   0.03912   0.03178  -0.0867  0.3103  1.0000  -4.7341   0.0000   0.0000   0.0000   0.2923
  11.400   1.4352   0.04022   0.03281  -0.0855  0.2950  1.0000  -4.7643   0.0000   0.0000   0.0000   0.2914
  11.500   1.4291   0.04141   0.03391  -0.0842  0.2790  1.0000  -4.7897   0.0000   0.0000   0.0000   0.2906
  11.600   1.4223   0.04272   0.03512  -0.0831  0.2622  1.0000  -4.8106   0.0000   0.0000   0.0000   0.2899
  11.700   1.4149   0.04415   0.03645  -0.0820  0.2458  1.0000  -4.8257   0.0000   0.0000   0.0000   0.2892
  11.800   1.4069   0.04569   0.03790  -0.0810  0.2298  1.0000  -4.8366   0.0000   0.0000   0.0000   0.2886
  11.900   1.3987   0.04733   0.03944  -0.0800  0.2141  1.0000  -4.8444   0.0000   0.0000   0.0000   0.2881
  12.000   1.3902   0.04907   0.04109  -0.0792  0.1992  1.0000  -4.8496   0.0000   0.0000   0.0000   0.2876
  12.100   1.3817   0.05087   0.04280  -0.0785  0.1848  1.0000  -4.8537   0.0000   0.0000   0.0000   0.2873
  12.200   1.3733   0.05273   0.04459  -0.0778  0.1710  1.0000  -4.8573   0.0000   0.0000   0.0000   0.2869
  12.300   1.3650   0.05465   0.04645  -0.0773  0.1579  1.0000  -4.8599   0.0000   0.0000   0.0000   0.2867
  12.400   1.3570   0.05659   0.04832  -0.0768  0.1456  1.0000  -4.8646   0.0000   0.0000   0.0000   0.2865
  12.500   1.3494   0.05854   0.05020  -0.0764  0.1339  1.0000  -4.8713   0.0000   0.0000   0.0000   0.2863
  12.600   1.3423   0.06049   0.05208  -0.0761  0.1233  1.0000  -4.8806   0.0000   0.0000   0.0000   0.2862
  12.700   1.3358   0.06241   0.05395  -0.0759  0.1135  1.0000  -4.8933   0.0000   0.0000   0.0000   0.2861
  12.800   1.3299   0.06430   0.05579  -0.0757  0.1048  1.0000  -4.9094   0.0000   0.0000   0.0000   0.2860
  12.900   1.3246   0.06615   0.05760  -0.0755  0.0969  1.0000  -4.9296   0.0000   0.0000   0.0000   0.2860
  13.000   1.3199   0.06796   0.05938  -0.0754  0.0898  1.0000  -4.9535   0.0000   0.0000   0.0000   0.2859
  13.100   1.3158   0.06973   0.06113  -0.0754  0.0835  1.0000  -4.9804   0.0000   0.0000   0.0000   0.2858
  13.200   1.3125   0.07142   0.06280  -0.0754  0.0776  1.0000  -5.0132   0.0000   0.0000   0.0000   0.2858
  13.300   1.3096   0.07306   0.06444  -0.0754  0.0725  1.0000  -5.0490   0.0000   0.0000   0.0000   0.2857
  13.500   1.3050   0.07627   0.06766  -0.0754  0.0637  1.0000  -5.1264   0.0000   0.0000   0.0000   0.2856
  13.600   1.3029   0.07787   0.06927  -0.0755  0.0601  1.0000  -5.1654   0.0000   0.0000   0.0000   0.2855
  13.700   1.3017   0.07936   0.07079  -0.0755  0.0564  1.0000  -5.2106   0.0000   0.0000   0.0000   0.2854
  13.800   1.2999   0.08095   0.07238  -0.0756  0.0532  1.0000  -5.2508   0.0000   0.0000   0.0000   0.2854
  13.900   1.2989   0.08243   0.07388  -0.0757  0.0494  1.0000  -5.2968   0.0000   0.0000   0.0000   0.2853
  14.000   1.2973   0.08401   0.07547  -0.0759  0.0461  1.0000  -5.3376   0.0000   0.0000   0.0000   0.2853
  14.100   1.2964   0.08551   0.07697  -0.0760  0.0420  1.0000  -5.3826   0.0000   0.0000   0.0000   0.2852
  14.200   1.2952   0.08704   0.07850  -0.0762  0.0378  1.0000  -5.4269   0.0000   0.0000   0.0000   0.2852
  14.300   1.2938   0.08861   0.08004  -0.0764  0.0336  1.0000  -5.4697   0.0000   0.0000   0.0000   0.2853
  14.400   1.2926   0.09015   0.08155  -0.0766  0.0291  1.0000  -5.5152   0.0000   0.0000   0.0000   0.2853
  14.500   1.2920   0.09160   0.08298  -0.0768  0.0246  1.0000  -5.5643   0.0000   0.0000   0.0000   0.2853
  14.600   1.2916   0.09305   0.08442  -0.0770  0.0208  1.0000  -5.6126   0.0000   0.0000   0.0000   0.2852
  14.700   1.2912   0.09450   0.08587  -0.0773  0.0180  1.0000  -5.6581   0.0000   0.0000   0.0000   0.2852
  14.800   1.2912   0.09590   0.08730  -0.0775  0.0159  1.0000  -5.7008   0.0000   0.0000   0.0000   0.2852
  14.900   1.2909   0.09734   0.08876  -0.0777  0.0143  1.0000  -5.7397   0.0000   0.0000   0.0000   0.2851
  15.000   1.2910   0.09874   0.09022  -0.0779  0.0128  1.0000  -5.7767   0.0000   0.0000   0.0000   0.2851


