xflr5 v6.59

 Calculated polar for: SF-12

 1 1 Reynolds number fixed          Mach number fixed         

 xtrf =   1.000 (top)        1.000 (bottom)
 Mach =   0.050     Re =     0.160 e 6     Ncrit =   5.000

  alpha     CL        CD       CDp       Cm    Top Xtr Bot Xtr   Cpmin    Chinge    XCp    
 ------- -------- --------- --------- -------- ------- ------- -------- --------- ---------
  -3.000   0.3085   0.01617   0.00735  -0.1290  0.7088  0.0897  -1.5592   0.0000   0.0000   0.0000   0.6744
  -2.900   0.3190   0.01610   0.00729  -0.1289  0.7067  0.0921  -1.5134   0.0000   0.0000   0.0000   0.6598
  -2.800   0.3298   0.01603   0.00719  -0.1288  0.7048  0.0950  -1.4691   0.0000   0.0000   0.0000   0.6459
  -2.700   0.3405   0.01594   0.00708  -0.1287  0.7029  0.0977  -1.4254   0.0000   0.0000   0.0000   0.6328
  -2.600   0.3514   0.01587   0.00700  -0.1286  0.7012  0.1001  -1.3800   0.0000   0.0000   0.0000   0.6206
  -2.500   0.3623   0.01579   0.00690  -0.1285  0.6995  0.1032  -1.3357   0.0000   0.0000   0.0000   0.6089
  -2.400   0.3734   0.01571   0.00679  -0.1284  0.6979  0.1064  -1.2918   0.0000   0.0000   0.0000   0.5979
  -2.300   0.3845   0.01565   0.00672  -0.1284  0.6964  0.1094  -1.2465   0.0000   0.0000   0.0000   0.5875
  -2.200   0.3958   0.01559   0.00662  -0.1284  0.6949  0.1130  -1.2025   0.0000   0.0000   0.0000   0.5775
  -2.100   0.4066   0.01553   0.00655  -0.1283  0.6933  0.1162  -1.1634   0.0000   0.0000   0.0000   0.5684
  -2.000   0.4168   0.01550   0.00655  -0.1281  0.6911  0.1194  -1.1257   0.0000   0.0000   0.0000   0.5600
  -1.900   0.4272   0.01546   0.00649  -0.1280  0.6890  0.1234  -1.0890   0.0000   0.0000   0.0000   0.5519
  -1.800   0.4376   0.01542   0.00648  -0.1278  0.6868  0.1267  -1.0512   0.0000   0.0000   0.0000   0.5442
  -1.700   0.4483   0.01538   0.00643  -0.1277  0.6847  0.1306  -1.0138   0.0000   0.0000   0.0000   0.5367
  -1.600   0.4590   0.01533   0.00637  -0.1276  0.6828  0.1345  -0.9767   0.0000   0.0000   0.0000   0.5296
  -1.500   0.4698   0.01529   0.00633  -0.1275  0.6809  0.1384  -0.9390   0.0000   0.0000   0.0000   0.5228
  -1.400   0.4808   0.01525   0.00625  -0.1274  0.6792  0.1431  -0.9021   0.0000   0.0000   0.0000   0.5161
  -1.300   0.4918   0.01520   0.00621  -0.1274  0.6775  0.1470  -0.8646   0.0000   0.0000   0.0000   0.5099
  -1.200   0.5031   0.01516   0.00614  -0.1273  0.6760  0.1517  -0.8583   0.0000   0.0000   0.0000   0.5038
  -1.100   0.5144   0.01511   0.00608  -0.1273  0.6745  0.1560  -0.8674   0.0000   0.0000   0.0000   0.4979
  -1.000   0.5246   0.01510   0.00609  -0.1271  0.6724  0.1607  -0.8757   0.0000   0.0000   0.0000   0.4926
  -0.900   0.5347   0.01509   0.00609  -0.1269  0.6701  0.1654  -0.8842   0.0000   0.0000   0.0000   0.4875
  -0.800   0.5450   0.01507   0.00610  -0.1268  0.6678  0.1699  -0.8929   0.0000   0.0000   0.0000   0.4825
  -0.700   0.5555   0.01505   0.00608  -0.1266  0.6656  0.1751  -0.9018   0.0000   0.0000   0.0000   0.4777
  -0.600   0.5660   0.01502   0.00607  -0.1265  0.6634  0.1799  -0.9109   0.0000   0.0000   0.0000   0.4730
  -0.500   0.5768   0.01500   0.00602  -0.1264  0.6614  0.1855  -0.9204   0.0000   0.0000   0.0000   0.4685
  -0.400   0.5876   0.01496   0.00599  -0.1263  0.6596  0.1904  -0.9300   0.0000   0.0000   0.0000   0.4641
  -0.300   0.5987   0.01493   0.00594  -0.1262  0.6578  0.1965  -0.9397   0.0000   0.0000   0.0000   0.4599
  -0.200   0.6098   0.01489   0.00591  -0.1262  0.6562  0.2019  -0.9497   0.0000   0.0000   0.0000   0.4558
  -0.100   0.6212   0.01487   0.00585  -0.1262  0.6546  0.2082  -0.9600   0.0000   0.0000   0.0000   0.4518
   0.000   0.6308   0.01486   0.00591  -0.1259  0.6521  0.2136  -0.9690   0.0000   0.0000   0.0000   0.4481
   0.100   0.6408   0.01487   0.00593  -0.1257  0.6496  0.2200  -0.9783   0.0000   0.0000   0.0000   0.4445
   0.200   0.6509   0.01485   0.00595  -0.1255  0.6472  0.2261  -0.9878   0.0000   0.0000   0.0000   0.4410
   0.300   0.6613   0.01484   0.00594  -0.1254  0.6448  0.2328  -0.9979   0.0000   0.0000   0.0000   0.4376
   0.400   0.6718   0.01481   0.00594  -0.1252  0.6426  0.2398  -1.0081   0.0000   0.0000   0.0000   0.4343
   0.500   0.6824   0.01478   0.00591  -0.1251  0.6406  0.2471  -1.0184   0.0000   0.0000   0.0000   0.4310
   0.600   0.6933   0.01476   0.00587  -0.1250  0.6387  0.2554  -1.0290   0.0000   0.0000   0.0000   0.4279
   0.700   0.7044   0.01472   0.00584  -0.1249  0.6369  0.2636  -1.0399   0.0000   0.0000   0.0000   0.4248
   0.800   0.7154   0.01469   0.00582  -0.1249  0.6351  0.2726  -1.0509   0.0000   0.0000   0.0000   0.4218
   0.900   0.7248   0.01470   0.00587  -0.1246  0.6324  0.2821  -1.0606   0.0000   0.0000   0.0000   0.4190
   1.000   0.7345   0.01469   0.00591  -0.1243  0.6297  0.2922  -1.0707   0.0000   0.0000   0.0000   0.4163
   1.100   0.7444   0.01467   0.00593  -0.1241  0.6271  0.3038  -1.0809   0.0000   0.0000   0.0000   0.4136
   1.200   0.7546   0.01464   0.00594  -0.1239  0.6246  0.3172  -1.0918   0.0000   0.0000   0.0000   0.4110
   1.300   0.7650   0.01459   0.00593  -0.1238  0.6224  0.3335  -1.1029   0.0000   0.0000   0.0000   0.4084
   1.400   0.7756   0.01452   0.00591  -0.1237  0.6203  0.3550  -1.1142   0.0000   0.0000   0.0000   0.4059
   1.500   0.7863   0.01440   0.00589  -0.1236  0.6183  0.3902  -1.1256   0.0000   0.0000   0.0000   0.4035
   1.600   0.7946   0.01390   0.00593  -0.1231  0.6166  0.5866  -1.1357   0.0000   0.0000   0.0000   0.4011
   1.800   0.8257   0.01332   0.00604  -0.1245  0.6105  1.0000  -1.1660   0.0000   0.0000   0.0000   0.3967
   1.900   0.8356   0.01337   0.00606  -0.1243  0.6077  1.0000  -1.1773   0.0000   0.0000   0.0000   0.3945
   2.000   0.8457   0.01342   0.00607  -0.1240  0.6051  1.0000  -1.1887   0.0000   0.0000   0.0000   0.3923
   2.100   0.8561   0.01345   0.00606  -0.1239  0.6027  1.0000  -1.2007   0.0000   0.0000   0.0000   0.3902
   2.200   0.8668   0.01349   0.00604  -0.1237  0.6005  1.0000  -1.2132   0.0000   0.0000   0.0000   0.3881
   2.300   0.8778   0.01352   0.00601  -0.1236  0.5985  1.0000  -1.2259   0.0000   0.0000   0.0000   0.3860
   2.400   0.8872   0.01359   0.00607  -0.1233  0.5955  1.0000  -1.2373   0.0000   0.0000   0.0000   0.3841
   2.500   0.8966   0.01366   0.00614  -0.1230  0.5924  1.0000  -1.2486   0.0000   0.0000   0.0000   0.3821
   2.600   0.9062   0.01372   0.00619  -0.1227  0.5894  1.0000  -1.2605   0.0000   0.0000   0.0000   0.3802
   2.700   0.9162   0.01377   0.00621  -0.1225  0.5866  1.0000  -1.2730   0.0000   0.0000   0.0000   0.3783
   2.800   0.9265   0.01381   0.00621  -0.1223  0.5841  1.0000  -1.2857   0.0000   0.0000   0.0000   0.3765
   2.900   0.9370   0.01385   0.00621  -0.1221  0.5817  1.0000  -1.2987   0.0000   0.0000   0.0000   0.3747
   3.000   0.9476   0.01389   0.00620  -0.1220  0.5794  1.0000  -1.3118   0.0000   0.0000   0.0000   0.3730
   3.100   0.9565   0.01397   0.00630  -0.1216  0.5760  1.0000  -1.3237   0.0000   0.0000   0.0000   0.3712
   3.200   0.9658   0.01404   0.00637  -0.1212  0.5728  1.0000  -1.3361   0.0000   0.0000   0.0000   0.3695
   3.300   0.9754   0.01410   0.00644  -0.1209  0.5697  1.0000  -1.3489   0.0000   0.0000   0.0000   0.3679
   3.400   0.9853   0.01416   0.00647  -0.1207  0.5668  1.0000  -1.3620   0.0000   0.0000   0.0000   0.3662
   3.500   0.9956   0.01420   0.00647  -0.1205  0.5642  1.0000  -1.3754   0.0000   0.0000   0.0000   0.3646
   3.600   1.0061   0.01425   0.00647  -0.1203  0.5618  1.0000  -1.3895   0.0000   0.0000   0.0000   0.3631
   3.700   1.0148   0.01434   0.00657  -0.1199  0.5583  1.0000  -1.4020   0.0000   0.0000   0.0000   0.3615
   3.800   1.0238   0.01441   0.00666  -0.1196  0.5549  1.0000  -1.4149   0.0000   0.0000   0.0000   0.3600
   3.900   1.0332   0.01448   0.00672  -0.1192  0.5517  1.0000  -1.4281   0.0000   0.0000   0.0000   0.3584
   4.000   1.0429   0.01454   0.00675  -0.1189  0.5486  1.0000  -1.4417   0.0000   0.0000   0.0000   0.3570
   4.100   1.0529   0.01460   0.00677  -0.1187  0.5458  1.0000  -1.4560   0.0000   0.0000   0.0000   0.3555
   4.200   1.0628   0.01466   0.00680  -0.1185  0.5430  1.0000  -1.4704   0.0000   0.0000   0.0000   0.3541
   4.300   1.0713   0.01475   0.00692  -0.1180  0.5394  1.0000  -1.4834   0.0000   0.0000   0.0000   0.3527
   4.400   1.0801   0.01484   0.00702  -0.1176  0.5358  1.0000  -1.4968   0.0000   0.0000   0.0000   0.3512
   4.500   1.0893   0.01491   0.00708  -0.1172  0.5324  1.0000  -1.5106   0.0000   0.0000   0.0000   0.3498
   4.600   1.0987   0.01498   0.00713  -0.1169  0.5293  1.0000  -1.5251   0.0000   0.0000   0.0000   0.3485
   4.700   1.1085   0.01505   0.00715  -0.1167  0.5264  1.0000  -1.5402   0.0000   0.0000   0.0000   0.3472
   4.800   1.1170   0.01514   0.00726  -0.1162  0.5228  1.0000  -1.5539   0.0000   0.0000   0.0000   0.3458
   4.900   1.1254   0.01524   0.00737  -0.1157  0.5191  1.0000  -1.5676   0.0000   0.0000   0.0000   0.3445
   5.000   1.1341   0.01532   0.00745  -0.1153  0.5155  1.0000  -1.5816   0.0000   0.0000   0.0000   0.3432
   5.100   1.1431   0.01541   0.00751  -0.1149  0.5122  1.0000  -1.5964   0.0000   0.0000   0.0000   0.3419
   5.200   1.1525   0.01549   0.00755  -0.1146  0.5091  1.0000  -1.6119   0.0000   0.0000   0.0000   0.3406
   5.300   1.1606   0.01559   0.00767  -0.1141  0.5055  1.0000  -1.6259   0.0000   0.0000   0.0000   0.3394
   5.400   1.1686   0.01569   0.00778  -0.1135  0.5016  1.0000  -1.6400   0.0000   0.0000   0.0000   0.3381
   5.500   1.1769   0.01579   0.00787  -0.1130  0.4979  1.0000  -1.6544   0.0000   0.0000   0.0000   0.3368
   5.600   1.1854   0.01589   0.00797  -0.1126  0.4944  1.0000  -1.6695   0.0000   0.0000   0.0000   0.3356
   5.800   1.2017   0.01610   0.00817  -0.1116  0.4874  1.0000  -1.6994   0.0000   0.0000   0.0000   0.3332
   5.900   1.2093   0.01621   0.00829  -0.1110  0.4835  1.0000  -1.7138   0.0000   0.0000   0.0000   0.3319
   6.000   1.2171   0.01632   0.00839  -0.1104  0.4797  1.0000  -1.7285   0.0000   0.0000   0.0000   0.3307
   6.100   1.2252   0.01643   0.00848  -0.1099  0.4762  1.0000  -1.7438   0.0000   0.0000   0.0000   0.3296
   6.200   1.2330   0.01655   0.00858  -0.1093  0.4728  1.0000  -1.7592   0.0000   0.0000   0.0000   0.3284
   6.300   1.2399   0.01667   0.00873  -0.1086  0.4688  1.0000  -1.7736   0.0000   0.0000   0.0000   0.3272
   6.400   1.2470   0.01680   0.00886  -0.1079  0.4649  1.0000  -1.7883   0.0000   0.0000   0.0000   0.3260
   6.500   1.2543   0.01692   0.00896  -0.1072  0.4612  1.0000  -1.8033   0.0000   0.0000   0.0000   0.3248
   6.600   1.2618   0.01705   0.00906  -0.1066  0.4578  1.0000  -1.8188   0.0000   0.0000   0.0000   0.3236
   6.700   1.2682   0.01718   0.00922  -0.1058  0.4539  1.0000  -1.8333   0.0000   0.0000   0.0000   0.3224
   6.800   1.2744   0.01732   0.00937  -0.1050  0.4500  1.0000  -1.8479   0.0000   0.0000   0.0000   0.3213
   6.900   1.2808   0.01746   0.00952  -0.1042  0.4461  1.0000  -1.8627   0.0000   0.0000   0.0000   0.3201
   7.000   1.2874   0.01760   0.00963  -0.1034  0.4426  1.0000  -1.8778   0.0000   0.0000   0.0000   0.3189
   7.100   1.2933   0.01774   0.00978  -0.1026  0.4390  1.0000  -1.8922   0.0000   0.0000   0.0000   0.3177
   7.200   1.2981   0.01788   0.00994  -0.1015  0.4352  1.0000  -1.9059   0.0000   0.0000   0.0000   0.3164
   7.300   1.3027   0.01803   0.01009  -0.1004  0.4314  1.0000  -1.9195   0.0000   0.0000   0.0000   0.3151
   7.400   1.3075   0.01818   0.01023  -0.0993  0.4278  1.0000  -1.9335   0.0000   0.0000   0.0000   0.3139
   7.500   1.3127   0.01834   0.01036  -0.0983  0.4246  1.0000  -1.9479   0.0000   0.0000   0.0000   0.3127
   7.600   1.3168   0.01850   0.01056  -0.0972  0.4208  1.0000  -1.9609   0.0000   0.0000   0.0000   0.3114
   7.700   1.3212   0.01867   0.01074  -0.0960  0.4169  1.0000  -1.9747   0.0000   0.0000   0.0000   0.3102
   7.800   1.3257   0.01885   0.01091  -0.0950  0.4133  1.0000  -1.9891   0.0000   0.0000   0.0000   0.3090
   7.900   1.3305   0.01903   0.01107  -0.0940  0.4099  1.0000  -2.0037   0.0000   0.0000   0.0000   0.3078
   8.000   1.3348   0.01922   0.01127  -0.0929  0.4064  1.0000  -2.0177   0.0000   0.0000   0.0000   0.3066
   8.100   1.3387   0.01941   0.01149  -0.0918  0.4027  1.0000  -2.0311   0.0000   0.0000   0.0000   0.3054
   8.200   1.3427   0.01962   0.01169  -0.0907  0.3990  1.0000  -2.0453   0.0000   0.0000   0.0000   0.3042
   8.300   1.3470   0.01982   0.01191  -0.0896  0.3955  1.0000  -2.0601   0.0000   0.0000   0.0000   0.3031
   8.400   1.3514   0.02004   0.01211  -0.0886  0.3923  1.0000  -2.0751   0.0000   0.0000   0.0000   0.3019
   8.500   1.3552   0.02026   0.01236  -0.0876  0.3886  1.0000  -2.0890   0.0000   0.0000   0.0000   0.3008
   8.600   1.3589   0.02049   0.01261  -0.0865  0.3849  1.0000  -2.1032   0.0000   0.0000   0.0000   0.2997
   8.700   1.3627   0.02072   0.01284  -0.0855  0.3814  1.0000  -2.1182   0.0000   0.0000   0.0000   0.2986
   8.800   1.3666   0.02096   0.01306  -0.0844  0.3780  1.0000  -2.1333   0.0000   0.0000   0.0000   0.2975
   8.900   1.3693   0.02122   0.01334  -0.0833  0.3737  1.0000  -2.1468   0.0000   0.0000   0.0000   0.2963
   9.000   1.3712   0.02151   0.01364  -0.0820  0.3687  1.0000  -2.1598   0.0000   0.0000   0.0000   0.2952
   9.100   1.3725   0.02183   0.01392  -0.0807  0.3637  1.0000  -2.1726   0.0000   0.0000   0.0000   0.2940
   9.200   1.3736   0.02216   0.01425  -0.0794  0.3581  1.0000  -2.1849   0.0000   0.0000   0.0000   0.2928
   9.300   1.3741   0.02252   0.01460  -0.0780  0.3521  1.0000  -2.1970   0.0000   0.0000   0.0000   0.2916
   9.400   1.3743   0.02290   0.01494  -0.0767  0.3465  1.0000  -2.2090   0.0000   0.0000   0.0000   0.2904
   9.500   1.3747   0.02329   0.01534  -0.0754  0.3400  1.0000  -2.2215   0.0000   0.0000   0.0000   0.2893
   9.600   1.3743   0.02373   0.01574  -0.0740  0.3340  1.0000  -2.2614   0.0000   0.0000   0.0000   0.2881
   9.700   1.3746   0.02416   0.01616  -0.0727  0.3275  1.0000  -2.3109   0.0000   0.0000   0.0000   0.2870
   9.800   1.3741   0.02464   0.01661  -0.0714  0.3212  1.0000  -2.3574   0.0000   0.0000   0.0000   0.2859
   9.900   1.3741   0.02512   0.01707  -0.0702  0.3149  1.0000  -2.4063   0.0000   0.0000   0.0000   0.2849
  10.000   1.3741   0.02561   0.01756  -0.0691  0.3085  1.0000  -2.4561   0.0000   0.0000   0.0000   0.2838
  10.100   1.3738   0.02613   0.01806  -0.0679  0.3027  1.0000  -2.5041   0.0000   0.0000   0.0000   0.2828
  10.200   1.3744   0.02664   0.01855  -0.0669  0.2963  1.0000  -2.5559   0.0000   0.0000   0.0000   0.2818
  10.300   1.3739   0.02720   0.01908  -0.0657  0.2910  1.0000  -2.6030   0.0000   0.0000   0.0000   0.2809
  10.400   1.3756   0.02768   0.01957  -0.0649  0.2852  1.0000  -2.6600   0.0000   0.0000   0.0000   0.2800
  10.500   1.3766   0.02820   0.02009  -0.0639  0.2803  1.0000  -2.7143   0.0000   0.0000   0.0000   0.2791
  10.600   1.3778   0.02873   0.02060  -0.0631  0.2765  1.0000  -2.7698   0.0000   0.0000   0.0000   0.2782
  10.700   1.3811   0.02916   0.02106  -0.0624  0.2728  1.0000  -2.8350   0.0000   0.0000   0.0000   0.2774
  10.800   1.3837   0.02963   0.02154  -0.0616  0.2693  1.0000  -2.8973   0.0000   0.0000   0.0000   0.2766
  10.900   1.3856   0.03014   0.02206  -0.0609  0.2659  1.0000  -2.9568   0.0000   0.0000   0.0000   0.2758
  11.000   1.3879   0.03064   0.02257  -0.0602  0.2627  1.0000  -3.0183   0.0000   0.0000   0.0000   0.2750
  11.100   1.3909   0.03111   0.02307  -0.0595  0.2592  1.0000  -3.0832   0.0000   0.0000   0.0000   0.2743
  11.200   1.3932   0.03163   0.02360  -0.0588  0.2557  1.0000  -3.1450   0.0000   0.0000   0.0000   0.2735
  11.300   1.3947   0.03219   0.02416  -0.0581  0.2526  1.0000  -3.2036   0.0000   0.0000   0.0000   0.2728
  11.400   1.3973   0.03271   0.02470  -0.0575  0.2493  1.0000  -3.2670   0.0000   0.0000   0.0000   0.2721
  11.500   1.3999   0.03323   0.02525  -0.0568  0.2458  1.0000  -3.3315   0.0000   0.0000   0.0000   0.2713
  11.600   1.4019   0.03380   0.02583  -0.0562  0.2425  1.0000  -3.3925   0.0000   0.0000   0.0000   0.2706
  11.700   1.4031   0.03442   0.02647  -0.0555  0.2394  1.0000  -3.4494   0.0000   0.0000   0.0000   0.2699
  11.800   1.4058   0.03496   0.02704  -0.0549  0.2360  1.0000  -3.5140   0.0000   0.0000   0.0000   0.2692
  11.900   1.4080   0.03553   0.02763  -0.0544  0.2326  1.0000  -3.5768   0.0000   0.0000   0.0000   0.2686
  12.000   1.4096   0.03616   0.02827  -0.0538  0.2293  1.0000  -3.6363   0.0000   0.0000   0.0000   0.2679
  12.100   1.4107   0.03682   0.02894  -0.0531  0.2260  1.0000  -3.6936   0.0000   0.0000   0.0000   0.2672
  12.200   1.4121   0.03748   0.02963  -0.0526  0.2214  1.0000  -3.7525   0.0000   0.0000   0.0000   0.2666
  12.300   1.4117   0.03828   0.03042  -0.0519  0.2167  1.0000  -3.8021   0.0000   0.0000   0.0000   0.2659
  12.400   1.4120   0.03905   0.03119  -0.0513  0.2112  1.0000  -3.8551   0.0000   0.0000   0.0000   0.2653
  12.500   1.4109   0.03994   0.03206  -0.0507  0.2056  1.0000  -3.9011   0.0000   0.0000   0.0000   0.2647
  12.600   1.4101   0.04082   0.03293  -0.0501  0.1996  1.0000  -3.9488   0.0000   0.0000   0.0000   0.2641
  12.700   1.4085   0.04179   0.03388  -0.0495  0.1936  1.0000  -3.9915   0.0000   0.0000   0.0000   0.2635
  12.800   1.4076   0.04271   0.03479  -0.0490  0.1871  1.0000  -4.0384   0.0000   0.0000   0.0000   0.2629
  12.900   1.4056   0.04374   0.03580  -0.0485  0.1813  1.0000  -4.0792   0.0000   0.0000   0.0000   0.2624
  13.000   1.4050   0.04468   0.03673  -0.0480  0.1751  1.0000  -4.1273   0.0000   0.0000   0.0000   0.2618
  13.100   1.4040   0.04567   0.03771  -0.0475  0.1700  1.0000  -4.1728   0.0000   0.0000   0.0000   0.2613
  13.200   1.4042   0.04657   0.03862  -0.0471  0.1652  1.0000  -4.2248   0.0000   0.0000   0.0000   0.2608
  13.300   1.4035   0.04756   0.03961  -0.0467  0.1609  1.0000  -4.2716   0.0000   0.0000   0.0000   0.2604
  13.400   1.4038   0.04848   0.04054  -0.0464  0.1560  1.0000  -4.3242   0.0000   0.0000   0.0000   0.2599
  13.500   1.4027   0.04954   0.04160  -0.0460  0.1516  1.0000  -4.3685   0.0000   0.0000   0.0000   0.2595
  13.600   1.4027   0.05052   0.04259  -0.0457  0.1467  1.0000  -4.4189   0.0000   0.0000   0.0000   0.2590
  13.700   1.4017   0.05160   0.04368  -0.0454  0.1422  1.0000  -4.4636   0.0000   0.0000   0.0000   0.2586
  13.800   1.4009   0.05268   0.04476  -0.0452  0.1369  1.0000  -4.5093   0.0000   0.0000   0.0000   0.2582
  13.900   1.3987   0.05393   0.04600  -0.0449  0.1313  1.0000  -4.5468   0.0000   0.0000   0.0000   0.2579
  14.000   1.3963   0.05521   0.04727  -0.0447  0.1248  1.0000  -4.5825   0.0000   0.0000   0.0000   0.2575
  14.100   1.3933   0.05659   0.04862  -0.0445  0.1178  1.0000  -4.6147   0.0000   0.0000   0.0000   0.2572
  14.200   1.3896   0.05806   0.05006  -0.0443  0.1107  1.0000  -4.6431   0.0000   0.0000   0.0000   0.2570
  14.300   1.3857   0.05958   0.05155  -0.0441  0.1032  1.0000  -4.6695   0.0000   0.0000   0.0000   0.2568
  14.400   1.3814   0.06118   0.05311  -0.0441  0.0959  1.0000  -4.6932   0.0000   0.0000   0.0000   0.2566
  14.500   1.3771   0.06281   0.05470  -0.0440  0.0886  1.0000  -4.7163   0.0000   0.0000   0.0000   0.2564
  14.600   1.3729   0.06446   0.05632  -0.0440  0.0817  1.0000  -4.7394   0.0000   0.0000   0.0000   0.2563
  14.700   1.3689   0.06610   0.05794  -0.0440  0.0755  1.0000  -4.7635   0.0000   0.0000   0.0000   0.2562
  14.800   1.3660   0.06764   0.05948  -0.0440  0.0702  1.0000  -4.7929   0.0000   0.0000   0.0000   0.2561
  14.900   1.3631   0.06920   0.06103  -0.0441  0.0655  1.0000  -4.8224   0.0000   0.0000   0.0000   0.2560
  15.000   1.3602   0.07078   0.06261  -0.0442  0.0611  1.0000  -4.8512   0.0000   0.0000   0.0000   0.2559


