xflr5 v6.59

 Calculated polar for: SF-12

 1 1 Reynolds number fixed          Mach number fixed         

 xtrf =   1.000 (top)        1.000 (bottom)
 Mach =   0.050     Re =     0.030 e 6     Ncrit =   5.000

  alpha     CL        CD       CDp       Cm    Top Xtr Bot Xtr   Cpmin    Chinge    XCp    
 ------- -------- --------- --------- -------- ------- ------- -------- --------- ---------
  -3.000  -0.0590   0.06052   0.05084  -0.0863  0.8300  0.1344  -1.6764   0.0000   0.0000   0.0000  -1.2496
  -2.900  -0.0479   0.05984   0.05008  -0.0868  0.8279  0.1361  -1.6513   0.0000   0.0000   0.0000  -1.6088
  -2.800  -0.0349   0.05905   0.04915  -0.0879  0.8259  0.1387  -1.6291   0.0000   0.0000   0.0000  -2.3319
  -2.700  -0.0187   0.05784   0.04766  -0.0898  0.8242  0.1422  -1.6222   0.0000   0.0000   0.0000  -4.6648
  -2.600  -0.0071   0.05715   0.04684  -0.0905  0.8222  0.1447  -1.6005   0.0000   0.0000   0.0000  -12.7873
  -2.500  -0.0070   0.05695   0.04661  -0.0892  0.8186  0.1459  -1.5879   0.0000   0.0000   0.0000  -12.8731
  -2.400  -0.0017   0.05653   0.04611  -0.0889  0.8156  0.1477  -1.5726   0.0000   0.0000   0.0000  -53.8116
  -2.300   0.0068   0.05592   0.04534  -0.0891  0.8129  0.1495  -1.5595   0.0000   0.0000   0.0000  13.6535
  -2.200   0.0181   0.05513   0.04428  -0.0898  0.8105  0.1522  -1.5499   0.0000   0.0000   0.0000   5.3258
  -2.100   0.0291   0.05467   0.04371  -0.0902  0.8081  0.1552  -1.5222   0.0000   0.0000   0.0000   3.4149
  -2.000   0.0410   0.05430   0.04326  -0.0907  0.8058  0.1588  -1.4880   0.0000   0.0000   0.0000   2.5061
  -1.900   0.0562   0.05358   0.04223  -0.0919  0.8038  0.1631  -1.4684   0.0000   0.0000   0.0000   1.9160
  -1.800   0.0701   0.05316   0.04172  -0.0925  0.8019  0.1662  -1.4316   0.0000   0.0000   0.0000   1.5948
  -1.700   0.0853   0.05274   0.04115  -0.0934  0.8002  0.1704  -1.3942   0.0000   0.0000   0.0000   1.3637
  -1.600   0.0851   0.05265   0.04093  -0.0922  0.7965  0.1726  -1.3899   0.0000   0.0000   0.0000   1.3511
  -1.500   0.0899   0.05248   0.04065  -0.0916  0.7933  0.1755  -1.3760   0.0000   0.0000   0.0000   1.2859
  -1.400   0.0963   0.05239   0.04054  -0.0911  0.7903  0.1786  -1.3505   0.0000   0.0000   0.0000   1.2112
  -1.300   0.1063   0.05214   0.04011  -0.0912  0.7876  0.1827  -1.3289   0.0000   0.0000   0.0000   1.1215
  -1.200   0.1186   0.05187   0.03967  -0.0916  0.7852  0.1870  -1.3027   0.0000   0.0000   0.0000   1.0341
  -1.100   0.1314   0.05170   0.03939  -0.0920  0.7829  0.1920  -1.2684   0.0000   0.0000   0.0000   0.9602
  -1.000   0.1467   0.05144   0.03892  -0.0928  0.7808  0.1980  -1.2365   0.0000   0.0000   0.0000   0.8910
  -0.900   0.1622   0.05125   0.03859  -0.0936  0.7790  0.2038  -1.1974   0.0000   0.0000   0.0000   0.8339
  -0.800   0.1709   0.05120   0.03835  -0.0935  0.7763  0.2088  -1.1749   0.0000   0.0000   0.0000   0.8033
  -0.700   0.1718   0.05134   0.03849  -0.0923  0.7725  0.2115  -1.1575   0.0000   0.0000   0.0000   0.7934
  -0.600   0.1784   0.05136   0.03841  -0.0919  0.7693  0.2162  -1.1340   0.0000   0.0000   0.0000   0.7707
  -0.500   0.1882   0.05131   0.03824  -0.0919  0.7663  0.2217  -1.1061   0.0000   0.0000   0.0000   0.7434
  -0.400   0.1996   0.05126   0.03810  -0.0921  0.7637  0.2278  -1.0726   0.0000   0.0000   0.0000   0.7157
  -0.300   0.2130   0.05118   0.03792  -0.0926  0.7613  0.2349  -1.0416   0.0000   0.0000   0.0000   0.6882
  -0.200   0.2280   0.05110   0.03766  -0.0932  0.7592  0.2432  -1.0097   0.0000   0.0000   0.0000   0.6619
  -0.100   0.2433   0.05100   0.03753  -0.0939  0.7573  0.2512  -0.9724   0.0000   0.0000   0.0000   0.6383
   0.000   0.2505   0.05111   0.03754  -0.0936  0.7544  0.2577  -0.9505   0.0000   0.0000   0.0000   0.6256
   0.100   0.2510   0.05132   0.03776  -0.0924  0.7504  0.2615  -0.9363   0.0000   0.0000   0.0000   0.6200
   0.200   0.2581   0.05144   0.03776  -0.0921  0.7470  0.2683  -0.9151   0.0000   0.0000   0.0000   0.6083
   0.300   0.2675   0.05146   0.03777  -0.0920  0.7440  0.2755  -0.8866   0.0000   0.0000   0.0000   0.5952
   0.400   0.2795   0.05146   0.03771  -0.0923  0.7414  0.2848  -0.8557   0.0000   0.0000   0.0000   0.5809
   0.500   0.2935   0.05145   0.03762  -0.0928  0.7391  0.2953  -0.8222   0.0000   0.0000   0.0000   0.5665
   0.600   0.3084   0.05140   0.03754  -0.0933  0.7371  0.3069  -0.7884   0.0000   0.0000   0.0000   0.5528
   0.700   0.3244   0.05132   0.03744  -0.0941  0.7353  0.3195  -0.7548   0.0000   0.0000   0.0000   0.5397
   0.800   0.3208   0.05170   0.03782  -0.0925  0.7308  0.3234  -0.7487   0.0000   0.0000   0.0000   0.5379
   0.900   0.3248   0.05188   0.03802  -0.0918  0.7270  0.3312  -0.7316   0.0000   0.0000   0.0000   0.5321
   1.000   0.3331   0.05196   0.03812  -0.0916  0.7238  0.3420  -0.7104   0.0000   0.0000   0.0000   0.5243
   1.100   0.3440   0.05198   0.03817  -0.0917  0.7211  0.3551  -0.7191   0.0000   0.0000   0.0000   0.5157
   1.200   0.3567   0.05194   0.03818  -0.0920  0.7187  0.3711  -0.7292   0.0000   0.0000   0.0000   0.5068
   1.300   0.3709   0.05186   0.03817  -0.0925  0.7166  0.3907  -0.7406   0.0000   0.0000   0.0000   0.4979
   1.400   0.3860   0.05168   0.03816  -0.0931  0.7148  0.4150  -0.7532   0.0000   0.0000   0.0000   0.4894
   1.500   0.3831   0.05205   0.03859  -0.0917  0.7103  0.4254  -0.7510   0.0000   0.0000   0.0000   0.4874
   1.600   0.3859   0.05219   0.03889  -0.0909  0.7064  0.4455  -0.7535   0.0000   0.0000   0.0000   0.4835
   1.700   0.3927   0.05206   0.03909  -0.0905  0.7033  0.4859  -0.7597   0.0000   0.0000   0.0000   0.4781
   1.900   0.4183   0.05132   0.03907  -0.0907  0.6978  1.0000  -0.7804   0.0000   0.0000   0.0000   0.4642
   2.000   0.4335   0.05160   0.03912  -0.0912  0.6957  1.0000  -0.7932   0.0000   0.0000   0.0000   0.4576
   2.100   0.4435   0.05197   0.03930  -0.0912  0.6930  1.0000  -0.8019   0.0000   0.0000   0.0000   0.4526
   2.200   0.4390   0.05258   0.03987  -0.0897  0.6878  1.0000  -0.7981   0.0000   0.0000   0.0000   0.4512
   2.300   0.4445   0.05301   0.04018  -0.0892  0.6841  1.0000  -0.8029   0.0000   0.0000   0.0000   0.4474
   2.400   0.4541   0.05337   0.04040  -0.0892  0.6810  1.0000  -0.8113   0.0000   0.0000   0.0000   0.4428
   2.500   0.4663   0.05367   0.04056  -0.0893  0.6784  1.0000  -0.8221   0.0000   0.0000   0.0000   0.4379
   2.600   0.4803   0.05395   0.04070  -0.0897  0.6761  1.0000  -0.8351   0.0000   0.0000   0.0000   0.4328
   2.700   0.4959   0.05418   0.04078  -0.0901  0.6743  1.0000  -0.8495   0.0000   0.0000   0.0000   0.4277
   2.800   0.4861   0.05497   0.04155  -0.0883  0.6684  1.0000  -0.8409   0.0000   0.0000   0.0000   0.4274
   2.900   0.4907   0.05544   0.04195  -0.0877  0.6645  1.0000  -0.8453   0.0000   0.0000   0.0000   0.4245
   3.000   0.4998   0.05581   0.04223  -0.0876  0.6613  1.0000  -0.8538   0.0000   0.0000   0.0000   0.4208
   3.100   0.5118   0.05611   0.04244  -0.0878  0.6587  1.0000  -0.8652   0.0000   0.0000   0.0000   0.4168
   3.200   0.5257   0.05637   0.04260  -0.0880  0.6564  1.0000  -0.8788   0.0000   0.0000   0.0000   0.4127
   3.300   0.5364   0.05672   0.04285  -0.0881  0.6539  1.0000  -0.8894   0.0000   0.0000   0.0000   0.4092
   3.400   0.5292   0.05752   0.04366  -0.0866  0.6482  1.0000  -0.8828   0.0000   0.0000   0.0000   0.4085
   3.500   0.5344   0.05800   0.04408  -0.0861  0.6444  1.0000  -0.8881   0.0000   0.0000   0.0000   0.4059
   3.600   0.5440   0.05836   0.04438  -0.0861  0.6413  1.0000  -0.8977   0.0000   0.0000   0.0000   0.4028
   3.700   0.5564   0.05865   0.04459  -0.0862  0.6388  1.0000  -0.9101   0.0000   0.0000   0.0000   0.3994
   3.800   0.5706   0.05888   0.04475  -0.0865  0.6367  1.0000  -0.9248   0.0000   0.0000   0.0000   0.3958
   3.900   0.5707   0.05955   0.04539  -0.0857  0.6324  1.0000  -0.9253   0.0000   0.0000   0.0000   0.3942
   4.000   0.5697   0.06024   0.04606  -0.0848  0.6276  1.0000  -0.9246   0.0000   0.0000   0.0000   0.3928
   4.100   0.5767   0.06069   0.04647  -0.0845  0.6241  1.0000  -0.9320   0.0000   0.0000   0.0000   0.3904
   4.200   0.5874   0.06102   0.04675  -0.0845  0.6212  1.0000  -0.9432   0.0000   0.0000   0.0000   0.3876
   4.300   0.6006   0.06128   0.04695  -0.0847  0.6189  1.0000  -0.9572   0.0000   0.0000   0.0000   0.3846
   4.400   0.6155   0.06147   0.04710  -0.0850  0.6169  1.0000  -0.9734   0.0000   0.0000   0.0000   0.3815
   4.500   0.6053   0.06254   0.04817  -0.0835  0.6109  1.0000  -0.9632   0.0000   0.0000   0.0000   0.3812
   4.600   0.6092   0.06311   0.04872  -0.0830  0.6069  1.0000  -0.9676   0.0000   0.0000   0.0000   0.3795
   4.700   0.6183   0.06350   0.04907  -0.0829  0.6037  1.0000  -0.9777   0.0000   0.0000   0.0000   0.3771
   4.800   0.6305   0.06378   0.04930  -0.0830  0.6012  1.0000  -0.9910   0.0000   0.0000   0.0000   0.3745
   4.900   0.6445   0.06399   0.04946  -0.0832  0.5991  1.0000  -1.0068   0.0000   0.0000   0.0000   0.3718
   5.000   0.6412   0.06488   0.05035  -0.0823  0.5943  1.0000  -1.0038   0.0000   0.0000   0.0000   0.3709
   5.100   0.6412   0.06564   0.05110  -0.0816  0.5896  1.0000  -1.0042   0.0000   0.0000   0.0000   0.3698
   5.200   0.6487   0.06610   0.05154  -0.0814  0.5862  1.0000  -1.0129   0.0000   0.0000   0.0000   0.3678
   5.300   0.6598   0.06641   0.05182  -0.0814  0.5835  1.0000  -1.0258   0.0000   0.0000   0.0000   0.3656
   5.400   0.6733   0.06662   0.05199  -0.0815  0.5813  1.0000  -1.0414   0.0000   0.0000   0.0000   0.3631
   5.500   0.6779   0.06724   0.05259  -0.0812  0.5778  1.0000  -1.0471   0.0000   0.0000   0.0000   0.3616
   5.600   0.6723   0.06830   0.05366  -0.0803  0.5724  1.0000  -1.0411   0.0000   0.0000   0.0000   0.3611
   5.700   0.6782   0.06884   0.05419  -0.0800  0.5688  1.0000  -1.0486   0.0000   0.0000   0.0000   0.3596
   5.800   0.6885   0.06919   0.05452  -0.0799  0.5659  1.0000  -1.0611   0.0000   0.0000   0.0000   0.3576
   5.900   0.7013   0.06941   0.05472  -0.0800  0.5636  1.0000  -1.0767   0.0000   0.0000   0.0000   0.3554
   6.000   0.7161   0.06955   0.05483  -0.0801  0.5617  1.0000  -1.0947   0.0000   0.0000   0.0000   0.3531
   6.100   0.7022   0.07110   0.05640  -0.0789  0.5552  1.0000  -1.0783   0.0000   0.0000   0.0000   0.3535
   6.200   0.7067   0.07174   0.05703  -0.0786  0.5514  1.0000  -1.0843   0.0000   0.0000   0.0000   0.3522
   6.300   0.7162   0.07213   0.05746  -0.0785  0.5484  1.0000  -1.0965   0.0000   0.0000   0.0000   0.3504
   6.400   0.7285   0.07237   0.05769  -0.0785  0.5460  1.0000  -1.1123   0.0000   0.0000   0.0000   0.3484
   6.500   0.7429   0.07249   0.05781  -0.0786  0.5441  1.0000  -1.1307   0.0000   0.0000   0.0000   0.3463
   6.600   0.7309   0.07407   0.05940  -0.0777  0.5380  1.0000  -1.1157   0.0000   0.0000   0.0000   0.3466
   6.700   0.7340   0.07481   0.06015  -0.0773  0.5340  1.0000  -1.1198   0.0000   0.0000   0.0000   0.3456
   6.800   0.7428   0.07525   0.06058  -0.0772  0.5310  1.0000  -1.1318   0.0000   0.0000   0.0000   0.3440
   6.900   0.7546   0.07550   0.06083  -0.0772  0.5285  1.0000  -1.1477   0.0000   0.0000   0.0000   0.3422
   7.000   0.7686   0.07563   0.06096  -0.0772  0.5265  1.0000  -1.1666   0.0000   0.0000   0.0000   0.3402
   7.100   0.7580   0.07724   0.06258  -0.0765  0.5208  1.0000  -1.1529   0.0000   0.0000   0.0000   0.3405
   7.200   0.7600   0.07809   0.06345  -0.0761  0.5167  1.0000  -1.1555   0.0000   0.0000   0.0000   0.3397
   7.300   0.7681   0.07858   0.06394  -0.0760  0.5137  1.0000  -1.1666   0.0000   0.0000   0.0000   0.3383
   7.400   0.7795   0.07885   0.06422  -0.0759  0.5112  1.0000  -1.1828   0.0000   0.0000   0.0000   0.3366
   7.500   0.7932   0.07898   0.06435  -0.0759  0.5092  1.0000  -1.2023   0.0000   0.0000   0.0000   0.3348
   7.600   0.7835   0.08062   0.06601  -0.0753  0.5037  1.0000  -1.1892   0.0000   0.0000   0.0000   0.3351
   7.700   0.7844   0.08159   0.06700  -0.0750  0.4996  1.0000  -1.1907   0.0000   0.0000   0.0000   0.3345
   7.800   0.7919   0.08213   0.06759  -0.0749  0.4965  1.0000  -1.2014   0.0000   0.0000   0.0000   0.3332
   7.900   0.8029   0.08243   0.06790  -0.0748  0.4941  1.0000  -1.2171   0.0000   0.0000   0.0000   0.3316
   8.000   0.8163   0.08256   0.06804  -0.0747  0.4920  1.0000  -1.2372   0.0000   0.0000   0.0000   0.3299
   8.100   0.8074   0.08425   0.06975  -0.0743  0.4868  1.0000  -1.2247   0.0000   0.0000   0.0000   0.3302
   8.200   0.8074   0.08533   0.07085  -0.0740  0.4826  1.0000  -1.2250   0.0000   0.0000   0.0000   0.3298
   8.300   0.8143   0.08592   0.07146  -0.0739  0.4796  1.0000  -1.2354   0.0000   0.0000   0.0000   0.3287
   8.400   0.8249   0.08626   0.07181  -0.0738  0.4771  1.0000  -1.2513   0.0000   0.0000   0.0000   0.3272
   8.500   0.8379   0.08639   0.07197  -0.0737  0.4751  1.0000  -1.2712   0.0000   0.0000   0.0000   0.3256
   8.600   0.8297   0.08813   0.07372  -0.0734  0.4701  1.0000  -1.2592   0.0000   0.0000   0.0000   0.3260
   8.700   0.8288   0.08932   0.07494  -0.0732  0.4659  1.0000  -1.2582   0.0000   0.0000   0.0000   0.3257
   8.800   0.8352   0.08997   0.07561  -0.0731  0.4628  1.0000  -1.2685   0.0000   0.0000   0.0000   0.3247
   8.900   0.8453   0.09034   0.07600  -0.0730  0.4604  1.0000  -1.2845   0.0000   0.0000   0.0000   0.3234
   9.000   0.8580   0.09050   0.07619  -0.0728  0.4584  1.0000  -1.3046   0.0000   0.0000   0.0000   0.3218
   9.100   0.8506   0.09226   0.07797  -0.0727  0.4537  1.0000  -1.2930   0.0000   0.0000   0.0000   0.3222
   9.200   0.8487   0.09357   0.07931  -0.0725  0.4495  1.0000  -1.2904   0.0000   0.0000   0.0000   0.3221
   9.300   0.8546   0.09428   0.08004  -0.0724  0.4464  1.0000  -1.3004   0.0000   0.0000   0.0000   0.3212
   9.400   0.8642   0.09469   0.08048  -0.0723  0.4439  1.0000  -1.3166   0.0000   0.0000   0.0000   0.3200
   9.500   0.8764   0.09488   0.08075  -0.0721  0.4419  1.0000  -1.3370   0.0000   0.0000   0.0000   0.3184
   9.600   0.8703   0.09662   0.08251  -0.0721  0.4376  1.0000  -1.3269   0.0000   0.0000   0.0000   0.3189
   9.700   0.8671   0.09808   0.08400  -0.0721  0.4333  1.0000  -1.3218   0.0000   0.0000   0.0000   0.3190
   9.800   0.8724   0.09886   0.08481  -0.0720  0.4302  1.0000  -1.3312   0.0000   0.0000   0.0000   0.3182
   9.900   0.8816   0.09931   0.08529  -0.0718  0.4278  1.0000  -1.3475   0.0000   0.0000   0.0000   0.3170
  10.000   0.8933   0.09954   0.08556  -0.0717  0.4257  1.0000  -1.3683   0.0000   0.0000   0.0000   0.3156
  10.100   0.8891   0.10118   0.08722  -0.0717  0.4219  1.0000  -1.3611   0.0000   0.0000   0.0000   0.3159
  10.200   0.8844   0.10284   0.08891  -0.0718  0.4176  1.0000  -1.3527   0.0000   0.0000   0.0000   0.3163
  10.300   0.8887   0.10370   0.08981  -0.0717  0.4144  1.0000  -1.3611   0.0000   0.0000   0.0000   0.3157
  10.400   0.8973   0.10420   0.09035  -0.0716  0.4119  1.0000  -1.3773   0.0000   0.0000   0.0000   0.3146
  10.500   0.9087   0.10446   0.09065  -0.0714  0.4099  1.0000  -1.3986   0.0000   0.0000   0.0000   0.3132
  10.600   0.9074   0.10588   0.09209  -0.0715  0.4065  1.0000  -1.3966   0.0000   0.0000   0.0000   0.3133
  10.700   0.9006   0.10779   0.09403  -0.0717  0.4022  1.0000  -1.3840   0.0000   0.0000   0.0000   0.3140
  10.800   0.9037   0.10878   0.09506  -0.0717  0.3990  1.0000  -1.3908   0.0000   0.0000   0.0000   0.3136
  10.900   0.9116   0.10934   0.09566  -0.0716  0.3964  1.0000  -1.4065   0.0000   0.0000   0.0000   0.3126
  11.000   0.9225   0.10963   0.09600  -0.0714  0.3943  1.0000  -1.4283   0.0000   0.0000   0.0000   0.3112
  11.100   0.9258   0.11067   0.09706  -0.0714  0.3916  1.0000  -1.4351   0.0000   0.0000   0.0000   0.3108
  11.200   0.9160   0.11290   0.09932  -0.0718  0.3873  1.0000  -1.4168   0.0000   0.0000   0.0000   0.3120
  11.300   0.9178   0.11403   0.10049  -0.0719  0.3840  1.0000  -1.4214   0.0000   0.0000   0.0000   0.3118
  11.400   0.9246   0.11470   0.10125  -0.0718  0.3813  1.0000  -1.4359   0.0000   0.0000   0.0000   0.3110
  11.500   0.9348   0.11505   0.10164  -0.0716  0.3791  1.0000  -1.4577   0.0000   0.0000   0.0000   0.3097
  11.600   0.9449   0.11543   0.10206  -0.0714  0.3771  1.0000  -1.4803   0.0000   0.0000   0.0000   0.3085
  11.700   0.9311   0.11811   0.10477  -0.0721  0.3727  1.0000  -1.4523   0.0000   0.0000   0.0000   0.3103
  11.800   0.9311   0.11942   0.10612  -0.0723  0.3694  1.0000  -1.4535   0.0000   0.0000   0.0000   0.3104
  11.900   0.9368   0.12021   0.10695  -0.0723  0.3667  1.0000  -1.4668   0.0000   0.0000   0.0000   0.3097
  12.000   0.9460   0.12064   0.10744  -0.0721  0.3644  1.0000  -1.4889   0.0000   0.0000   0.0000   0.3086
  12.100   0.9583   0.12080   0.10765  -0.0718  0.3625  1.0000  -1.5179   0.0000   0.0000   0.0000   0.3071
  12.200   0.9460   0.12336   0.11022  -0.0726  0.3585  1.0000  -1.4919   0.0000   0.0000   0.0000   0.3088
  12.300   0.9441   0.12488   0.11178  -0.0730  0.3552  1.0000  -1.4897   0.0000   0.0000   0.0000   0.3092
  12.400   0.9482   0.12582   0.11276  -0.0731  0.3524  1.0000  -1.5011   0.0000   0.0000   0.0000   0.3088
  12.500   0.9564   0.12636   0.11336  -0.0729  0.3500  1.0000  -1.5222   0.0000   0.0000   0.0000   0.3078
  12.600   0.9678   0.12659   0.11365  -0.0726  0.3479  1.0000  -1.5527   0.0000   0.0000   0.0000   0.3064
  12.700   0.9610   0.12862   0.11569  -0.0733  0.3446  1.0000  -1.5388   0.0000   0.0000   0.0000   0.3075
  12.800   0.9571   0.13036   0.11746  -0.0738  0.3413  1.0000  -1.5314   0.0000   0.0000   0.0000   0.3082
  12.900   0.9595   0.13147   0.11861  -0.0740  0.3385  1.0000  -1.5401   0.0000   0.0000   0.0000   0.3081
  13.000   0.9663   0.13214   0.11934  -0.0739  0.3359  1.0000  -1.5608   0.0000   0.0000   0.0000   0.3073
  13.100   0.9768   0.13246   0.11972  -0.0737  0.3338  1.0000  -1.5912   0.0000   0.0000   0.0000   0.3060
  13.300   0.9700   0.13584   0.12319  -0.0748  0.3277  1.0000  -1.5803   0.0000   0.0000   0.0000   0.3074
  13.400   0.9708   0.13711   0.12450  -0.0751  0.3248  1.0000  -1.5859   0.0000   0.0000   0.0000   0.3075
  13.500   0.9762   0.13792   0.12537  -0.0752  0.3222  1.0000  -1.6044   0.0000   0.0000   0.0000   0.3069
  13.600   0.9856   0.13834   0.12586  -0.0749  0.3200  1.0000  -1.6359   0.0000   0.0000   0.0000   0.3058
  13.700   0.9918   0.13909   0.12665  -0.0749  0.3176  1.0000  -1.6581   0.0000   0.0000   0.0000   0.3051
  13.800   0.9827   0.14131   0.12889  -0.0759  0.3142  1.0000  -1.6356   0.0000   0.0000   0.0000   0.3067
  13.900   0.9821   0.14272   0.13033  -0.0764  0.3114  1.0000  -1.6380   0.0000   0.0000   0.0000   0.3071
  14.000   0.9863   0.14366   0.13132  -0.0766  0.3088  1.0000  -1.6555   0.0000   0.0000   0.0000   0.3067
  14.100   0.9946   0.14419   0.13192  -0.0764  0.3064  1.0000  -1.6861   0.0000   0.0000   0.0000   0.3057
  14.200   1.0065   0.14437   0.13216  -0.0760  0.3043  1.0000  -1.7293   0.0000   0.0000   0.0000   0.3041
  14.300   0.9950   0.14681   0.13461  -0.0773  0.3009  1.0000  -1.6973   0.0000   0.0000   0.0000   0.3062
  14.400   0.9934   0.14831   0.13614  -0.0779  0.2981  1.0000  -1.6970   0.0000   0.0000   0.0000   0.3068
  14.500   0.9965   0.14934   0.13722  -0.0781  0.2954  1.0000  -1.7125   0.0000   0.0000   0.0000   0.3066
  14.600   1.0042   0.14994   0.13789  -0.0780  0.2930  1.0000  -1.7431   0.0000   0.0000   0.0000   0.3057
  14.700   1.0163   0.15010   0.13813  -0.0775  0.2908  1.0000  -1.7907   0.0000   0.0000   0.0000   0.3040
  14.800   1.0066   0.15235   0.14037  -0.0788  0.2876  1.0000  -1.7622   0.0000   0.0000   0.0000   0.3059
  14.900   1.0044   0.15388   0.14193  -0.0795  0.2848  1.0000  -1.7599   0.0000   0.0000   0.0000   0.3066
  15.000   1.0071   0.15495   0.14306  -0.0798  0.2821  1.0000  -1.7902   0.0000   0.0000   0.0000   0.3066


