xflr5 v6.59

 Calculated polar for: SF-14

 1 1 Reynolds number fixed          Mach number fixed         

 xtrf =   1.000 (top)        1.000 (bottom)
 Mach =   0.050     Re =     3.000 e 6     Ncrit =   5.000

  alpha     CL        CD       CDp       Cm    Top Xtr Bot Xtr   Cpmin    Chinge    XCp    
 ------- -------- --------- --------- -------- ------- ------- -------- --------- ---------
  -3.000   0.4617   0.00683   0.00137  -0.1710  0.5432  0.0133  -2.0702   0.0000   0.0000   0.0000   0.6245
  -2.900   0.4729   0.00681   0.00134  -0.1711  0.5412  0.0140  -1.9914   0.0000   0.0000   0.0000   0.6155
  -2.800   0.4841   0.00678   0.00132  -0.1711  0.5391  0.0150  -1.9137   0.0000   0.0000   0.0000   0.6069
  -2.700   0.4952   0.00677   0.00130  -0.1711  0.5369  0.0160  -1.8370   0.0000   0.0000   0.0000   0.5988
  -2.600   0.5063   0.00675   0.00128  -0.1711  0.5346  0.0171  -1.7615   0.0000   0.0000   0.0000   0.5910
  -2.500   0.5174   0.00675   0.00126  -0.1711  0.5322  0.0178  -1.6872   0.0000   0.0000   0.0000   0.5835
  -2.400   0.5285   0.00673   0.00124  -0.1711  0.5300  0.0195  -1.6137   0.0000   0.0000   0.0000   0.5764
  -2.300   0.5397   0.00671   0.00122  -0.1712  0.5286  0.0213  -1.5404   0.0000   0.0000   0.0000   0.5695
  -2.200   0.5509   0.00668   0.00121  -0.1712  0.5269  0.0234  -1.4685   0.0000   0.0000   0.0000   0.5629
  -2.100   0.5621   0.00666   0.00119  -0.1712  0.5250  0.0257  -1.3975   0.0000   0.0000   0.0000   0.5566
  -2.000   0.5733   0.00665   0.00118  -0.1712  0.5228  0.0275  -1.3306   0.0000   0.0000   0.0000   0.5505
  -1.900   0.5843   0.00664   0.00117  -0.1712  0.5205  0.0297  -1.2709   0.0000   0.0000   0.0000   0.5447
  -1.800   0.5953   0.00664   0.00116  -0.1712  0.5182  0.0310  -1.2121   0.0000   0.0000   0.0000   0.5390
  -1.700   0.6064   0.00664   0.00116  -0.1712  0.5158  0.0321  -1.1541   0.0000   0.0000   0.0000   0.5336
  -1.600   0.6175   0.00663   0.00115  -0.1712  0.5139  0.0342  -1.0967   0.0000   0.0000   0.0000   0.5284
  -1.500   0.6287   0.00662   0.00114  -0.1713  0.5127  0.0358  -1.0397   0.0000   0.0000   0.0000   0.5233
  -1.400   0.6399   0.00661   0.00113  -0.1713  0.5112  0.0370  -0.9834   0.0000   0.0000   0.0000   0.5184
  -1.300   0.6511   0.00660   0.00112  -0.1713  0.5095  0.0387  -0.9632   0.0000   0.0000   0.0000   0.5137
  -1.200   0.6622   0.00660   0.00111  -0.1713  0.5076  0.0406  -0.9719   0.0000   0.0000   0.0000   0.5092
  -1.100   0.6732   0.00660   0.00111  -0.1714  0.5055  0.0423  -0.9805   0.0000   0.0000   0.0000   0.5048
  -1.000   0.6842   0.00660   0.00111  -0.1713  0.5033  0.0442  -0.9891   0.0000   0.0000   0.0000   0.5005
  -0.900   0.6951   0.00661   0.00111  -0.1713  0.5009  0.0471  -0.9977   0.0000   0.0000   0.0000   0.4964
  -0.800   0.7061   0.00661   0.00111  -0.1713  0.4987  0.0493  -1.0063   0.0000   0.0000   0.0000   0.4924
  -0.700   0.7173   0.00660   0.00111  -0.1713  0.4974  0.0518  -1.0151   0.0000   0.0000   0.0000   0.4885
  -0.600   0.7284   0.00660   0.00111  -0.1714  0.4959  0.0543  -1.0238   0.0000   0.0000   0.0000   0.4848
  -0.500   0.7395   0.00660   0.00111  -0.1714  0.4943  0.0563  -1.0326   0.0000   0.0000   0.0000   0.4811
  -0.400   0.7506   0.00659   0.00111  -0.1714  0.4926  0.0598  -1.0413   0.0000   0.0000   0.0000   0.4776
  -0.300   0.7616   0.00660   0.00111  -0.1714  0.4908  0.0631  -1.0500   0.0000   0.0000   0.0000   0.4741
  -0.200   0.7726   0.00660   0.00112  -0.1714  0.4889  0.0669  -1.0587   0.0000   0.0000   0.0000   0.4708
  -0.100   0.7835   0.00661   0.00113  -0.1714  0.4868  0.0699  -1.0676   0.0000   0.0000   0.0000   0.4675
   0.000   0.7943   0.00662   0.00114  -0.1714  0.4846  0.0731  -1.0765   0.0000   0.0000   0.0000   0.4644
   0.100   0.8053   0.00662   0.00114  -0.1714  0.4829  0.0772  -1.0855   0.0000   0.0000   0.0000   0.4613
   0.200   0.8164   0.00662   0.00115  -0.1714  0.4816  0.0818  -1.0946   0.0000   0.0000   0.0000   0.4583
   0.300   0.8275   0.00662   0.00116  -0.1714  0.4801  0.0861  -1.1036   0.0000   0.0000   0.0000   0.4554
   0.400   0.8385   0.00662   0.00117  -0.1714  0.4784  0.0902  -1.1127   0.0000   0.0000   0.0000   0.4525
   0.500   0.8494   0.00663   0.00118  -0.1714  0.4766  0.0946  -1.1217   0.0000   0.0000   0.0000   0.4498
   0.600   0.8603   0.00663   0.00119  -0.1714  0.4747  0.1005  -1.1307   0.0000   0.0000   0.0000   0.4471
   0.700   0.8711   0.00664   0.00120  -0.1714  0.4728  0.1057  -1.1396   0.0000   0.0000   0.0000   0.4444
   0.800   0.8819   0.00666   0.00122  -0.1713  0.4708  0.1108  -1.1486   0.0000   0.0000   0.0000   0.4419
   0.900   0.8927   0.00667   0.00124  -0.1713  0.4687  0.1167  -1.1575   0.0000   0.0000   0.0000   0.4394
   1.000   0.9037   0.00667   0.00125  -0.1713  0.4674  0.1233  -1.1666   0.0000   0.0000   0.0000   0.4369
   1.100   0.9147   0.00667   0.00127  -0.1713  0.4661  0.1302  -1.1757   0.0000   0.0000   0.0000   0.4345
   1.200   0.9256   0.00667   0.00128  -0.1713  0.4647  0.1367  -1.1850   0.0000   0.0000   0.0000   0.4322
   1.300   0.9365   0.00667   0.00130  -0.1713  0.4630  0.1444  -1.1944   0.0000   0.0000   0.0000   0.4299
   1.400   0.9473   0.00668   0.00132  -0.1713  0.4612  0.1521  -1.2037   0.0000   0.0000   0.0000   0.4276
   1.500   0.9581   0.00669   0.00134  -0.1713  0.4593  0.1600  -1.2130   0.0000   0.0000   0.0000   0.4255
   1.600   0.9688   0.00671   0.00136  -0.1712  0.4574  0.1688  -1.2222   0.0000   0.0000   0.0000   0.4233
   1.700   0.9794   0.00672   0.00139  -0.1712  0.4553  0.1777  -1.2315   0.0000   0.0000   0.0000   0.4212
   1.800   0.9901   0.00674   0.00141  -0.1711  0.4534  0.1862  -1.2407   0.0000   0.0000   0.0000   0.4192
   1.900   1.0010   0.00674   0.00143  -0.1711  0.4523  0.1960  -1.2501   0.0000   0.0000   0.0000   0.4172
   2.000   1.0119   0.00674   0.00145  -0.1711  0.4510  0.2062  -1.2595   0.0000   0.0000   0.0000   0.4152
   2.100   1.0227   0.00675   0.00148  -0.1711  0.4496  0.2168  -1.2689   0.0000   0.0000   0.0000   0.4133
   2.200   1.0334   0.00675   0.00150  -0.1711  0.4479  0.2282  -1.2783   0.0000   0.0000   0.0000   0.4114
   2.300   1.0441   0.00676   0.00153  -0.1710  0.4462  0.2398  -1.2879   0.0000   0.0000   0.0000   0.4095
   2.400   1.0547   0.00678   0.00156  -0.1710  0.4443  0.2523  -1.2975   0.0000   0.0000   0.0000   0.4077
   2.500   1.0653   0.00679   0.00159  -0.1709  0.4424  0.2655  -1.3070   0.0000   0.0000   0.0000   0.4059
   2.600   1.0758   0.00681   0.00162  -0.1709  0.4405  0.2795  -1.3166   0.0000   0.0000   0.0000   0.4041
   2.700   1.0863   0.00682   0.00167  -0.1708  0.4385  0.2952  -1.3261   0.0000   0.0000   0.0000   0.4024
   2.800   1.0971   0.00682   0.00169  -0.1708  0.4375  0.3127  -1.3359   0.0000   0.0000   0.0000   0.4007
   2.900   1.1078   0.00681   0.00173  -0.1708  0.4362  0.3334  -1.3456   0.0000   0.0000   0.0000   0.3991
   3.000   1.1184   0.00680   0.00176  -0.1707  0.4348  0.3590  -1.3553   0.0000   0.0000   0.0000   0.3975
   3.100   1.1290   0.00679   0.00180  -0.1707  0.4332  0.3923  -1.3649   0.0000   0.0000   0.0000   0.3959
   3.200   1.1395   0.00674   0.00185  -0.1707  0.4315  0.4487  -1.3747   0.0000   0.0000   0.0000   0.3943
   3.300   1.1492   0.00646   0.00199  -0.1707  0.4298  0.6780  -1.3840   0.0000   0.0000   0.0000   0.3929
   3.400   1.1591   0.00640   0.00205  -0.1705  0.4279  0.7394  -1.3936   0.0000   0.0000   0.0000   0.3914
   3.600   1.1759   0.00615   0.00221  -0.1695  0.4135  1.0000  -1.4109   0.0000   0.0000   0.0000   0.3882
   3.700   1.1854   0.00624   0.00227  -0.1693  0.4068  1.0000  -1.4202   0.0000   0.0000   0.0000   0.3867
   3.800   1.1933   0.00640   0.00235  -0.1687  0.3934  1.0000  -1.4284   0.0000   0.0000   0.0000   0.3851
   3.900   1.2002   0.00660   0.00246  -0.1679  0.3757  1.0000  -1.4361   0.0000   0.0000   0.0000   0.3835
   4.000   1.2071   0.00681   0.00257  -0.1672  0.3591  1.0000  -1.4436   0.0000   0.0000   0.0000   0.3820
   4.100   1.2155   0.00693   0.00265  -0.1667  0.3499  1.0000  -1.4525   0.0000   0.0000   0.0000   0.3805
   4.200   1.2234   0.00708   0.00274  -0.1661  0.3396  1.0000  -1.4611   0.0000   0.0000   0.0000   0.3790
   4.300   1.2309   0.00725   0.00284  -0.1655  0.3277  1.0000  -1.4695   0.0000   0.0000   0.0000   0.3775
   4.400   1.2378   0.00743   0.00295  -0.1647  0.3140  1.0000  -1.4775   0.0000   0.0000   0.0000   0.3760
   4.500   1.2442   0.00764   0.00308  -0.1639  0.2985  1.0000  -1.4854   0.0000   0.0000   0.0000   0.3745
   4.600   1.2493   0.00790   0.00324  -0.1628  0.2802  1.0000  -1.4989   0.0000   0.0000   0.0000   0.3730
   4.700   1.2543   0.00816   0.00340  -0.1617  0.2620  1.0000  -1.5073   0.0000   0.0000   0.0000   0.3714
   4.800   1.2520   0.00871   0.00374  -0.1592  0.2210  1.0000  -1.5036   0.0000   0.0000   0.0000   0.3696
   4.900   1.2417   0.00956   0.00425  -0.1551  0.1565  1.0000  -1.4886   0.0000   0.0000   0.0000   0.3672
   5.000   1.2311   0.01008   0.00458  -0.1508  0.1147  1.0000  -1.4858   0.0000   0.0000   0.0000   0.3647
   5.100   1.2210   0.01064   0.00495  -0.1467  0.0698  1.0000  -1.4823   0.0000   0.0000   0.0000   0.3622
   5.200   1.2125   0.01125   0.00536  -0.1429  0.0206  1.0000  -1.4792   0.0000   0.0000   0.0000   0.3598
   5.300   1.2140   0.01155   0.00560  -0.1411  0.0014  1.0000  -1.4831   0.0000   0.0000   0.0000   0.3580
   5.400   1.2214   0.01164   0.00568  -0.1404  0.0013  1.0000  -1.4914   0.0000   0.0000   0.0000   0.3567
   5.500   1.2286   0.01174   0.00578  -0.1398  0.0010  1.0000  -1.4996   0.0000   0.0000   0.0000   0.3553
   5.600   1.2359   0.01183   0.00587  -0.1391  0.0009  1.0000  -1.5080   0.0000   0.0000   0.0000   0.3540
   5.700   1.2430   0.01193   0.00596  -0.1384  0.0007  1.0000  -1.5165   0.0000   0.0000   0.0000   0.3526
   5.800   1.2494   0.01203   0.00606  -0.1376  0.0007  1.0000  -1.5245   0.0000   0.0000   0.0000   0.3512
   5.900   1.2555   0.01214   0.00617  -0.1367  0.0006  1.0000  -1.5322   0.0000   0.0000   0.0000   0.3499
   6.000   1.2617   0.01225   0.00627  -0.1358  0.0005  1.0000  -1.5401   0.0000   0.0000   0.0000   0.3485
   6.100   1.2681   0.01236   0.00638  -0.1350  0.0004  1.0000  -1.5480   0.0000   0.0000   0.0000   0.3472
   6.200   1.2747   0.01247   0.00649  -0.1343  0.0004  1.0000  -1.5561   0.0000   0.0000   0.0000   0.3459
   6.300   1.2813   0.01258   0.00660  -0.1335  0.0004  1.0000  -1.5645   0.0000   0.0000   0.0000   0.3446
   6.400   1.2880   0.01269   0.00671  -0.1328  0.0004  1.0000  -1.5731   0.0000   0.0000   0.0000   0.3434
   6.500   1.2947   0.01281   0.00683  -0.1320  0.0004  1.0000  -1.5816   0.0000   0.0000   0.0000   0.3421
   6.600   1.3014   0.01293   0.00694  -0.1313  0.0004  1.0000  -1.5901   0.0000   0.0000   0.0000   0.3409
   6.700   1.3081   0.01305   0.00706  -0.1306  0.0004  1.0000  -1.6267   0.0000   0.0000   0.0000   0.3397
   6.800   1.3142   0.01317   0.00719  -0.1298  0.0004  1.0000  -1.6650   0.0000   0.0000   0.0000   0.3384
   6.900   1.3198   0.01330   0.00733  -0.1289  0.0004  1.0000  -1.7077   0.0000   0.0000   0.0000   0.3372
   7.000   1.3254   0.01344   0.00747  -0.1280  0.0004  1.0000  -1.7506   0.0000   0.0000   0.0000   0.3359
   7.100   1.3312   0.01358   0.00761  -0.1271  0.0004  1.0000  -1.7943   0.0000   0.0000   0.0000   0.3347
   7.200   1.3373   0.01372   0.00775  -0.1263  0.0004  1.0000  -1.8507   0.0000   0.0000   0.0000   0.3335
   7.300   1.3434   0.01386   0.00790  -0.1255  0.0004  1.0000  -1.9383   0.0000   0.0000   0.0000   0.3324
   7.400   1.3495   0.01401   0.00805  -0.1248  0.0004  1.0000  -2.0272   0.0000   0.0000   0.0000   0.3312
   7.500   1.3557   0.01416   0.00820  -0.1240  0.0004  1.0000  -2.1172   0.0000   0.0000   0.0000   0.3301
   7.600   1.3618   0.01431   0.00835  -0.1232  0.0004  1.0000  -2.2077   0.0000   0.0000   0.0000   0.3290
   7.700   1.3671   0.01448   0.00853  -0.1223  0.0004  1.0000  -2.2956   0.0000   0.0000   0.0000   0.3278
   7.800   1.3721   0.01465   0.00871  -0.1214  0.0004  1.0000  -2.3822   0.0000   0.0000   0.0000   0.3266
   7.900   1.3773   0.01483   0.00890  -0.1205  0.0004  1.0000  -2.4706   0.0000   0.0000   0.0000   0.3255
   8.000   1.3826   0.01501   0.00908  -0.1196  0.0004  1.0000  -2.5612   0.0000   0.0000   0.0000   0.3244
   8.100   1.3881   0.01520   0.00928  -0.1188  0.0004  1.0000  -2.6505   0.0000   0.0000   0.0000   0.3233
   8.200   1.3937   0.01538   0.00947  -0.1180  0.0004  1.0000  -2.7431   0.0000   0.0000   0.0000   0.3222
   8.300   1.3992   0.01557   0.00967  -0.1172  0.0004  1.0000  -2.8367   0.0000   0.0000   0.0000   0.3211
   8.400   1.4043   0.01577   0.00987  -0.1163  0.0004  1.0000  -2.9287   0.0000   0.0000   0.0000   0.3200
   8.500   1.4086   0.01599   0.01011  -0.1153  0.0004  1.0000  -3.0169   0.0000   0.0000   0.0000   0.3189
   8.600   1.4130   0.01622   0.01035  -0.1143  0.0004  1.0000  -3.1057   0.0000   0.0000   0.0000   0.3178
   8.700   1.4176   0.01644   0.01059  -0.1134  0.0004  1.0000  -3.1966   0.0000   0.0000   0.0000   0.3168
   8.800   1.4224   0.01667   0.01083  -0.1125  0.0004  1.0000  -3.2891   0.0000   0.0000   0.0000   0.3157
   8.900   1.4272   0.01691   0.01107  -0.1117  0.0004  1.0000  -3.3823   0.0000   0.0000   0.0000   0.3147
   9.000   1.4319   0.01715   0.01133  -0.1108  0.0004  1.0000  -3.4750   0.0000   0.0000   0.0000   0.3136
   9.100   1.4356   0.01743   0.01162  -0.1098  0.0004  1.0000  -3.5624   0.0000   0.0000   0.0000   0.3126
   9.200   1.4391   0.01772   0.01193  -0.1088  0.0004  1.0000  -3.6486   0.0000   0.0000   0.0000   0.3115
   9.300   1.4429   0.01801   0.01224  -0.1078  0.0004  1.0000  -3.7368   0.0000   0.0000   0.0000   0.3105
   9.400   1.4469   0.01831   0.01255  -0.1069  0.0004  1.0000  -3.8260   0.0000   0.0000   0.0000   0.3094
   9.500   1.4509   0.01861   0.01287  -0.1059  0.0004  1.0000  -3.9173   0.0000   0.0000   0.0000   0.3084
   9.600   1.4542   0.01894   0.01322  -0.1049  0.0004  1.0000  -4.0025   0.0000   0.0000   0.0000   0.3074
   9.700   1.4567   0.01930   0.01360  -0.1038  0.0004  1.0000  -4.0821   0.0000   0.0000   0.0000   0.3064
   9.800   1.4594   0.01967   0.01399  -0.1028  0.0004  1.0000  -4.1623   0.0000   0.0000   0.0000   0.3053
   9.900   1.4623   0.02004   0.01438  -0.1018  0.0004  1.0000  -4.2417   0.0000   0.0000   0.0000   0.3043
  10.000   1.4649   0.02044   0.01481  -0.1007  0.0004  1.0000  -4.3150   0.0000   0.0000   0.0000   0.3033


