xflr5 v6.59

 Calculated polar for: SF-14

 1 1 Reynolds number fixed          Mach number fixed         

 xtrf =   1.000 (top)        1.000 (bottom)
 Mach =   0.050     Re =     0.040 e 6     Ncrit =   5.000

  alpha     CL        CD       CDp       Cm    Top Xtr Bot Xtr   Cpmin    Chinge    XCp    
 ------- -------- --------- --------- -------- ------- ------- -------- --------- ---------
  -3.000   0.0933   0.05659   0.04843  -0.1152  0.8056  0.0814  -1.7511   0.0000   0.0000   0.0000   1.5055
  -2.900   0.0879   0.05647   0.04829  -0.1134  0.7996  0.0813  -1.7582   0.0000   0.0000   0.0000   1.5620
  -2.800   0.0983   0.05528   0.04695  -0.1146  0.7963  0.0812  -1.7486   0.0000   0.0000   0.0000   1.4344
  -2.700   0.1112   0.05412   0.04561  -0.1159  0.7937  0.0820  -1.7227   0.0000   0.0000   0.0000   1.3093
  -2.600   0.1265   0.05285   0.04415  -0.1177  0.7916  0.0838  -1.6921   0.0000   0.0000   0.0000   1.1943
  -2.500   0.1456   0.05122   0.04220  -0.1203  0.7899  0.0859  -1.6762   0.0000   0.0000   0.0000   1.0879
  -2.400   0.1627   0.04996   0.04073  -0.1221  0.7882  0.0876  -1.6358   0.0000   0.0000   0.0000   1.0109
  -2.300   0.1785   0.04900   0.03963  -0.1233  0.7868  0.0891  -1.6021   0.0000   0.0000   0.0000   0.9503
  -2.200   0.1964   0.04779   0.03819  -0.1250  0.7855  0.0901  -1.5921   0.0000   0.0000   0.0000   0.8946
  -2.100   0.2149   0.04660   0.03674  -0.1267  0.7844  0.0916  -1.5817   0.0000   0.0000   0.0000   0.8468
  -2.000   0.2092   0.04681   0.03690  -0.1246  0.7783  0.0920  -1.5852   0.0000   0.0000   0.0000   0.8529
  -1.900   0.2193   0.04611   0.03594  -0.1250  0.7751  0.0941  -1.5858   0.0000   0.0000   0.0000   0.8267
  -1.800   0.2304   0.04559   0.03529  -0.1254  0.7725  0.0967  -1.5592   0.0000   0.0000   0.0000   0.8002
  -1.700   0.2430   0.04510   0.03470  -0.1259  0.7702  0.0997  -1.5230   0.0000   0.0000   0.0000   0.7735
  -1.600   0.2592   0.04425   0.03354  -0.1269  0.7685  0.1025  -1.5077   0.0000   0.0000   0.0000   0.7446
  -1.500   0.2752   0.04346   0.03250  -0.1278  0.7669  0.1047  -1.4843   0.0000   0.0000   0.0000   0.7189
  -1.400   0.2902   0.04298   0.03193  -0.1285  0.7655  0.1082  -1.4362   0.0000   0.0000   0.0000   0.6969
  -1.300   0.3074   0.04231   0.03096  -0.1295  0.7642  0.1133  -1.4050   0.0000   0.0000   0.0000   0.6749
  -1.200   0.3087   0.04249   0.03111  -0.1283  0.7601  0.1152  -1.3794   0.0000   0.0000   0.0000   0.6692
  -1.100   0.3100   0.04264   0.03122  -0.1271  0.7556  0.1172  -1.3600   0.0000   0.0000   0.0000   0.6634
  -1.000   0.3197   0.04237   0.03075  -0.1270  0.7528  0.1205  -1.3347   0.0000   0.0000   0.0000   0.6502
  -0.900   0.3318   0.04207   0.03032  -0.1272  0.7505  0.1243  -1.2959   0.0000   0.0000   0.0000   0.6360
  -0.800   0.3459   0.04177   0.02985  -0.1277  0.7485  0.1302  -1.2506   0.0000   0.0000   0.0000   0.6214
  -0.700   0.3606   0.04146   0.02943  -0.1282  0.7469  0.1359  -1.1987   0.0000   0.0000   0.0000   0.6075
  -0.600   0.3770   0.04108   0.02883  -0.1289  0.7455  0.1424  -1.1616   0.0000   0.0000   0.0000   0.5937
  -0.500   0.3930   0.04075   0.02839  -0.1296  0.7441  0.1503  -1.1164   0.0000   0.0000   0.0000   0.5812
  -0.400   0.4093   0.04042   0.02798  -0.1303  0.7430  0.1584  -1.0686   0.0000   0.0000   0.0000   0.5695
  -0.300   0.3966   0.04132   0.02891  -0.1274  0.7359  0.1577  -1.0764   0.0000   0.0000   0.0000   0.5722
  -0.200   0.4052   0.04133   0.02882  -0.1271  0.7329  0.1640  -1.0458   0.0000   0.0000   0.0000   0.5646
  -0.100   0.4168   0.04122   0.02862  -0.1272  0.7305  0.1728  -1.0084   0.0000   0.0000   0.0000   0.5558
   0.000   0.4299   0.04105   0.02839  -0.1275  0.7286  0.1823  -0.9651   0.0000   0.0000   0.0000   0.5470
   0.100   0.4442   0.04084   0.02813  -0.1279  0.7270  0.1940  -0.9194   0.0000   0.0000   0.0000   0.5382
   0.200   0.4593   0.04058   0.02782  -0.1285  0.7256  0.2070  -0.8714   0.0000   0.0000   0.0000   0.5297
   0.300   0.4747   0.04032   0.02755  -0.1291  0.7243  0.2225  -0.8213   0.0000   0.0000   0.0000   0.5217
   0.400   0.4879   0.04016   0.02738  -0.1294  0.7226  0.2389  -0.8092   0.0000   0.0000   0.0000   0.5148
   0.500   0.4758   0.04117   0.02841  -0.1267  0.7158  0.2379  -0.7982   0.0000   0.0000   0.0000   0.5158
   0.600   0.4840   0.04124   0.02849  -0.1264  0.7129  0.2536  -0.8034   0.0000   0.0000   0.0000   0.5106
   0.700   0.4952   0.04115   0.02846  -0.1266  0.7107  0.2733  -0.8110   0.0000   0.0000   0.0000   0.5048
   0.800   0.5082   0.04096   0.02835  -0.1269  0.7089  0.3003  -0.8201   0.0000   0.0000   0.0000   0.4987
   0.900   0.5224   0.04066   0.02821  -0.1274  0.7073  0.3381  -0.8301   0.0000   0.0000   0.0000   0.4928
   1.000   0.5370   0.04018   0.02807  -0.1280  0.7061  0.4029  -0.8408   0.0000   0.0000   0.0000   0.4870
   1.100   0.5455   0.03867   0.02781  -0.1269  0.7048  1.0000  -0.8483   0.0000   0.0000   0.0000   0.4811
   1.300   0.5431   0.04005   0.02895  -0.1242  0.6957  1.0000  -0.8430   0.0000   0.0000   0.0000   0.4770
   1.400   0.5516   0.04036   0.02907  -0.1240  0.6930  1.0000  -0.8485   0.0000   0.0000   0.0000   0.4728
   1.500   0.5628   0.04056   0.02909  -0.1240  0.6908  1.0000  -0.8564   0.0000   0.0000   0.0000   0.4683
   1.600   0.5755   0.04069   0.02901  -0.1242  0.6891  1.0000  -0.8657   0.0000   0.0000   0.0000   0.4635
   1.700   0.5892   0.04077   0.02893  -0.1245  0.6876  1.0000  -0.8759   0.0000   0.0000   0.0000   0.4589
   1.800   0.6038   0.04082   0.02882  -0.1249  0.6863  1.0000  -0.8870   0.0000   0.0000   0.0000   0.4542
   1.900   0.6187   0.04084   0.02871  -0.1253  0.6851  1.0000  -0.8983   0.0000   0.0000   0.0000   0.4498
   2.000   0.6015   0.04227   0.03017  -0.1224  0.6777  1.0000  -0.8815   0.0000   0.0000   0.0000   0.4507
   2.100   0.6079   0.04267   0.03049  -0.1220  0.6748  1.0000  -0.8857   0.0000   0.0000   0.0000   0.4477
   2.200   0.6177   0.04293   0.03065  -0.1219  0.6726  1.0000  -0.8929   0.0000   0.0000   0.0000   0.4442
   2.300   0.6294   0.04310   0.03072  -0.1220  0.6708  1.0000  -0.9019   0.0000   0.0000   0.0000   0.4406
   2.400   0.6423   0.04321   0.03073  -0.1222  0.6693  1.0000  -0.9119   0.0000   0.0000   0.0000   0.4368
   2.500   0.6562   0.04328   0.03070  -0.1225  0.6680  1.0000  -0.9229   0.0000   0.0000   0.0000   0.4331
   2.600   0.6708   0.04331   0.03063  -0.1229  0.6669  1.0000  -0.9346   0.0000   0.0000   0.0000   0.4295
   2.700   0.6548   0.04479   0.03215  -0.1203  0.6600  1.0000  -0.9181   0.0000   0.0000   0.0000   0.4299
   2.800   0.6596   0.04530   0.03260  -0.1197  0.6569  1.0000  -0.9208   0.0000   0.0000   0.0000   0.4276
   2.900   0.6684   0.04561   0.03286  -0.1196  0.6547  1.0000  -0.9275   0.0000   0.0000   0.0000   0.4248
   3.000   0.6793   0.04583   0.03301  -0.1196  0.6528  1.0000  -0.9360   0.0000   0.0000   0.0000   0.4219
   3.100   0.6915   0.04598   0.03309  -0.1197  0.6513  1.0000  -0.9459   0.0000   0.0000   0.0000   0.4188
   3.200   0.7048   0.04607   0.03312  -0.1200  0.6500  1.0000  -0.9568   0.0000   0.0000   0.0000   0.4157
   3.300   0.7189   0.04612   0.03310  -0.1203  0.6489  1.0000  -0.9685   0.0000   0.0000   0.0000   0.4127
   3.500   0.7073   0.04827   0.03525  -0.1174  0.6392  1.0000  -0.9539   0.0000   0.0000   0.0000   0.4111
   3.600   0.7153   0.04865   0.03560  -0.1171  0.6370  1.0000  -0.9600   0.0000   0.0000   0.0000   0.4088
   3.700   0.7255   0.04891   0.03581  -0.1171  0.6351  1.0000  -0.9683   0.0000   0.0000   0.0000   0.4063
   3.800   0.7371   0.04910   0.03595  -0.1172  0.6336  1.0000  -0.9780   0.0000   0.0000   0.0000   0.4037
   3.900   0.7498   0.04923   0.03603  -0.1173  0.6323  1.0000  -0.9888   0.0000   0.0000   0.0000   0.4011
   4.000   0.7634   0.04930   0.03607  -0.1176  0.6312  1.0000  -1.0004   0.0000   0.0000   0.0000   0.3985
   4.100   0.7484   0.05095   0.03774  -0.1155  0.6250  1.0000  -0.9838   0.0000   0.0000   0.0000   0.3987
   4.200   0.7512   0.05162   0.03839  -0.1149  0.6218  1.0000  -0.9847   0.0000   0.0000   0.0000   0.3971
   4.300   0.7587   0.05205   0.03879  -0.1146  0.6195  1.0000  -0.9907   0.0000   0.0000   0.0000   0.3952
   4.400   0.7682   0.05236   0.03908  -0.1145  0.6177  1.0000  -0.9987   0.0000   0.0000   0.0000   0.3931
   4.500   0.7793   0.05259   0.03928  -0.1146  0.6162  1.0000  -1.0082   0.0000   0.0000   0.0000   0.3908
   4.600   0.7914   0.05275   0.03941  -0.1147  0.6149  1.0000  -1.0189   0.0000   0.0000   0.0000   0.3886
   4.700   0.8046   0.05286   0.03950  -0.1149  0.6137  1.0000  -1.0306   0.0000   0.0000   0.0000   0.3863
   4.800   0.7890   0.05464   0.04130  -0.1129  0.6077  1.0000  -1.0127   0.0000   0.0000   0.0000   0.3866
   4.900   0.7913   0.05539   0.04204  -0.1123  0.6045  1.0000  -1.0134   0.0000   0.0000   0.0000   0.3853
   5.000   0.7985   0.05585   0.04249  -0.1121  0.6023  1.0000  -1.0193   0.0000   0.0000   0.0000   0.3836
   5.100   0.8078   0.05619   0.04283  -0.1120  0.6005  1.0000  -1.0275   0.0000   0.0000   0.0000   0.3817
   5.200   0.8184   0.05646   0.04308  -0.1120  0.5990  1.0000  -1.0369   0.0000   0.0000   0.0000   0.3797
   5.300   0.8301   0.05666   0.04327  -0.1121  0.5977  1.0000  -1.0475   0.0000   0.0000   0.0000   0.3778
   5.400   0.8429   0.05679   0.04345  -0.1122  0.5966  1.0000  -1.0593   0.0000   0.0000   0.0000   0.3757
   5.500   0.8262   0.05875   0.04543  -0.1104  0.5905  1.0000  -1.0398   0.0000   0.0000   0.0000   0.3761
   5.600   0.8283   0.05953   0.04622  -0.1099  0.5874  1.0000  -1.0406   0.0000   0.0000   0.0000   0.3750
   5.700   0.8353   0.06004   0.04673  -0.1096  0.5852  1.0000  -1.0465   0.0000   0.0000   0.0000   0.3735
   5.800   0.8443   0.06042   0.04711  -0.1096  0.5835  1.0000  -1.0546   0.0000   0.0000   0.0000   0.3718
   5.900   0.8549   0.06070   0.04739  -0.1095  0.5820  1.0000  -1.0644   0.0000   0.0000   0.0000   0.3701
   6.000   0.8664   0.06092   0.04762  -0.1096  0.5807  1.0000  -1.0752   0.0000   0.0000   0.0000   0.3683
   6.100   0.8788   0.06108   0.04779  -0.1097  0.5796  1.0000  -1.0874   0.0000   0.0000   0.0000   0.3664
   6.200   0.8603   0.06325   0.04998  -0.1080  0.5734  1.0000  -1.0656   0.0000   0.0000   0.0000   0.3671
   6.300   0.8629   0.06405   0.05080  -0.1075  0.5704  1.0000  -1.0669   0.0000   0.0000   0.0000   0.3661
   6.400   0.8697   0.06459   0.05135  -0.1073  0.5683  1.0000  -1.0728   0.0000   0.0000   0.0000   0.3647
   6.500   0.8786   0.06500   0.05177  -0.1072  0.5666  1.0000  -1.0810   0.0000   0.0000   0.0000   0.3632
   6.600   0.8890   0.06531   0.05209  -0.1072  0.5651  1.0000  -1.0913   0.0000   0.0000   0.0000   0.3616
   6.700   0.9006   0.06553   0.05233  -0.1073  0.5639  1.0000  -1.1032   0.0000   0.0000   0.0000   0.3599
   6.800   0.9130   0.06570   0.05258  -0.1073  0.5628  1.0000  -1.1160   0.0000   0.0000   0.0000   0.3582
   6.900   0.8920   0.06814   0.05499  -0.1058  0.5562  1.0000  -1.0905   0.0000   0.0000   0.0000   0.3591
   7.000   0.8953   0.06893   0.05585  -0.1054  0.5535  1.0000  -1.0926   0.0000   0.0000   0.0000   0.3582
   7.100   0.9022   0.06949   0.05644  -0.1052  0.5515  1.0000  -1.0992   0.0000   0.0000   0.0000   0.3569
   7.200   0.9112   0.06991   0.05688  -0.1051  0.5498  1.0000  -1.1084   0.0000   0.0000   0.0000   0.3555
   7.300   0.9217   0.07021   0.05721  -0.1051  0.5483  1.0000  -1.1195   0.0000   0.0000   0.0000   0.3540
   7.400   0.9335   0.07044   0.05746  -0.1051  0.5471  1.0000  -1.1321   0.0000   0.0000   0.0000   0.3525
   7.500   0.9248   0.07211   0.05916  -0.1043  0.5428  1.0000  -1.1203   0.0000   0.0000   0.0000   0.3525
   7.600   0.9215   0.07341   0.06049  -0.1037  0.5390  1.0000  -1.1153   0.0000   0.0000   0.0000   0.3522
   7.700   0.9261   0.07415   0.06126  -0.1035  0.5366  1.0000  -1.1197   0.0000   0.0000   0.0000   0.3512
   7.800   0.9336   0.07469   0.06183  -0.1034  0.5347  1.0000  -1.1275   0.0000   0.0000   0.0000   0.3500
   7.900   0.9430   0.07508   0.06226  -0.1033  0.5330  1.0000  -1.1377   0.0000   0.0000   0.0000   0.3487
   8.000   0.9540   0.07536   0.06259  -0.1033  0.5317  1.0000  -1.1502   0.0000   0.0000   0.0000   0.3472
   8.100   0.9660   0.07557   0.06284  -0.1033  0.5305  1.0000  -1.1642   0.0000   0.0000   0.0000   0.3457
   8.200   0.9481   0.07800   0.06529  -0.1023  0.5247  1.0000  -1.1412   0.0000   0.0000   0.0000   0.3466
   8.300   0.9498   0.07898   0.06631  -0.1020  0.5218  1.0000  -1.1423   0.0000   0.0000   0.0000   0.3459
   8.400   0.9561   0.07963   0.06700  -0.1018  0.5196  1.0000  -1.1495   0.0000   0.0000   0.0000   0.3449
   8.500   0.9648   0.08008   0.06750  -0.1017  0.5178  1.0000  -1.1598   0.0000   0.0000   0.0000   0.3437
   8.600   0.9751   0.08042   0.06794  -0.1017  0.5163  1.0000  -1.1721   0.0000   0.0000   0.0000   0.3424
   8.700   0.9866   0.08067   0.06825  -0.1016  0.5150  1.0000  -1.1968   0.0000   0.0000   0.0000   0.3410
   8.800   0.9747   0.08273   0.07034  -0.1010  0.5102  1.0000  -1.1837   0.0000   0.0000   0.0000   0.3415
   8.900   0.9735   0.08397   0.07162  -0.1007  0.5068  1.0000  -1.1926   0.0000   0.0000   0.0000   0.3411
   9.000   0.9787   0.08471   0.07240  -0.1005  0.5044  1.0000  -1.2149   0.0000   0.0000   0.0000   0.3403
   9.100   0.9869   0.08521   0.07296  -0.1004  0.5024  1.0000  -1.2460   0.0000   0.0000   0.0000   0.3391
   9.200   0.9970   0.08557   0.07338  -0.1004  0.5008  1.0000  -1.2820   0.0000   0.0000   0.0000   0.3379
   9.300   1.0082   0.08584   0.07372  -0.1003  0.4995  1.0000  -1.3223   0.0000   0.0000   0.0000   0.3365
   9.400   0.9987   0.08780   0.07571  -0.0999  0.4951  1.0000  -1.3130   0.0000   0.0000   0.0000   0.3369
   9.500   0.9964   0.08915   0.07710  -0.0996  0.4914  1.0000  -1.3218   0.0000   0.0000   0.0000   0.3367
   9.600   1.0015   0.08990   0.07791  -0.0995  0.4889  1.0000  -1.3493   0.0000   0.0000   0.0000   0.3359
   9.700   1.0097   0.09041   0.07849  -0.0994  0.4869  1.0000  -1.3849   0.0000   0.0000   0.0000   0.3348
   9.800   1.0199   0.09077   0.07892  -0.0993  0.4852  1.0000  -1.4259   0.0000   0.0000   0.0000   0.3336
   9.900   1.0313   0.09102   0.07925  -0.0992  0.4839  1.0000  -1.4743   0.0000   0.0000   0.0000   0.3323
  10.000   1.0183   0.09331   0.08156  -0.0989  0.4787  1.0000  -1.4535   0.0000   0.0000   0.0000   0.3331
  10.100   1.0187   0.09446   0.08277  -0.0987  0.4754  1.0000  -1.4713   0.0000   0.0000   0.0000   0.3327
  10.200   1.0248   0.09514   0.08351  -0.0986  0.4729  1.0000  -1.5056   0.0000   0.0000   0.0000   0.3318
  10.300   1.0339   0.09559   0.08409  -0.0985  0.4710  1.0000  -1.5486   0.0000   0.0000   0.0000   0.3307
  10.400   1.0448   0.09587   0.08445  -0.0984  0.4694  1.0000  -1.5978   0.0000   0.0000   0.0000   0.3294
  10.500   1.0452   0.09706   0.08570  -0.0982  0.4663  1.0000  -1.6156   0.0000   0.0000   0.0000   0.3291
  10.600   1.0372   0.09895   0.08763  -0.0981  0.4615  1.0000  -1.6081   0.0000   0.0000   0.0000   0.3296
  10.700   1.0419   0.09976   0.08851  -0.0980  0.4587  1.0000  -1.6386   0.0000   0.0000   0.0000   0.3289
  10.800   1.0502   0.10024   0.08907  -0.0978  0.4565  1.0000  -1.6846   0.0000   0.0000   0.0000   0.3278
  10.900   1.0612   0.10049   0.08942  -0.0977  0.4548  1.0000  -1.7453   0.0000   0.0000   0.0000   0.3265
  11.000   1.0740   0.10058   0.08961  -0.0976  0.4533  1.0000  -1.8464   0.0000   0.0000   0.0000   0.3251
  11.100   1.0556   0.10343   0.09247  -0.0975  0.4468  1.0000  -1.7823   0.0000   0.0000   0.0000   0.3266
  11.200   1.0603   0.10422   0.09333  -0.0974  0.4438  1.0000  -1.8410   0.0000   0.0000   0.0000   0.3259
  11.300   1.0693   0.10462   0.09383  -0.0973  0.4415  1.0000  -1.9231   0.0000   0.0000   0.0000   0.3248
  11.400   1.0813   0.10473   0.09405  -0.0971  0.4397  1.0000  -2.0232   0.0000   0.0000   0.0000   0.3234
  11.600   1.0740   0.10782   0.09724  -0.0970  0.4309  1.0000  -2.0507   0.0000   0.0000   0.0000   0.3236
  11.700   1.0814   0.10832   0.09784  -0.0969  0.4281  1.0000  -2.1270   0.0000   0.0000   0.0000   0.3227
  11.800   1.0931   0.10839   0.09807  -0.0966  0.4258  1.0000  -2.2302   0.0000   0.0000   0.0000   0.3213
  11.900   1.0996   0.10895   0.09873  -0.0964  0.4229  1.0000  -2.3036   0.0000   0.0000   0.0000   0.3204
  12.000   1.0897   0.11108   0.10088  -0.0966  0.4171  1.0000  -2.2806   0.0000   0.0000   0.0000   0.3212
  12.100   1.0973   0.11147   0.10138  -0.0964  0.4138  1.0000  -2.3613   0.0000   0.0000   0.0000   0.3202
  12.200   1.1108   0.11125   0.10130  -0.0960  0.4113  1.0000  -2.4786   0.0000   0.0000   0.0000   0.3185
  12.300   1.1072   0.11275   0.10284  -0.0960  0.4063  1.0000  -2.4928   0.0000   0.0000   0.0000   0.3187
  12.400   1.1077   0.11378   0.10395  -0.0959  0.4014  1.0000  -2.5319   0.0000   0.0000   0.0000   0.3184
  12.500   1.1209   0.11340   0.10372  -0.0954  0.3980  1.0000  -2.6518   0.0000   0.0000   0.0000   0.3167
  12.600   1.1259   0.11384   0.10426  -0.0951  0.3935  1.0000  -2.7212   0.0000   0.0000   0.0000   0.3158
  12.700   1.1236   0.11506   0.10554  -0.0951  0.3874  1.0000  -2.7441   0.0000   0.0000   0.0000   0.3158
  12.800   1.1435   0.11345   0.10411  -0.0940  0.3832  1.0000  -2.9159   0.0000   0.0000   0.0000   0.3131
  12.900   1.1358   0.11528   0.10598  -0.0942  0.3762  1.0000  -2.9035   0.0000   0.0000   0.0000   0.3136
  13.000   1.1533   0.11360   0.10447  -0.0929  0.3703  1.0000  -3.0655   0.0000   0.0000   0.0000   0.3110
  13.100   1.1507   0.11469   0.10563  -0.0928  0.3632  1.0000  -3.0940   0.0000   0.0000   0.0000   0.3109
  13.200   1.1747   0.11146   0.10266  -0.0909  0.3558  1.0000  -3.3461   0.0000   0.0000   0.0000   0.3072
  13.300   1.1643   0.11384   0.10506  -0.0913  0.3482  1.0000  -3.3091   0.0000   0.0000   0.0000   0.3082
  13.400   1.1827   0.11125   0.10266  -0.0896  0.3400  1.0000  -3.5199   0.0000   0.0000   0.0000   0.3051
  13.500   1.1828   0.11183   0.10333  -0.0893  0.3317  1.0000  -3.5738   0.0000   0.0000   0.0000   0.3046
  13.600   1.1844   0.11219   0.10379  -0.0889  0.3235  1.0000  -3.6397   0.0000   0.0000   0.0000   0.3040
  13.700   1.1990   0.11003   0.10181  -0.0873  0.3144  1.0000  -3.8250   0.0000   0.0000   0.0000   0.3014
  13.800   1.2003   0.11042   0.10231  -0.0870  0.3053  1.0000  -3.8900   0.0000   0.0000   0.0000   0.3008
  13.900   1.1987   0.11144   0.10341  -0.0869  0.2961  1.0000  -3.9275   0.0000   0.0000   0.0000   0.3006
  14.000   1.2036   0.11115   0.10325  -0.0862  0.2860  1.0000  -4.0253   0.0000   0.0000   0.0000   0.2995
  14.100   1.2085   0.11081   0.10303  -0.0855  0.2751  1.0000  -4.1251   0.0000   0.0000   0.0000   0.2983
  14.200   1.2118   0.11084   0.10317  -0.0850  0.2633  1.0000  -4.2085   0.0000   0.0000   0.0000   0.2974
  14.300   1.2140   0.11113   0.10357  -0.0846  0.2503  1.0000  -4.2814   0.0000   0.0000   0.0000   0.2967
  14.400   1.2203   0.11057   0.10314  -0.0837  0.2335  1.0000  -4.3929   0.0000   0.0000   0.0000   0.2953
  14.500   1.2330   0.10861   0.10117  -0.0820  0.2073  1.0000  -4.5659   0.0000   0.0000   0.0000   0.2928
  14.600   1.2466   0.10641   0.09858  -0.0799  0.1743  1.0000  -4.7469   0.0000   0.0000   0.0000   0.2900
  14.700   1.2490   0.10675   0.09855  -0.0792  0.1560  1.0000  -4.8208   0.0000   0.0000   0.0000   0.2891
  14.800   1.2481   0.10797   0.09957  -0.0792  0.1443  1.0000  -4.8580   0.0000   0.0000   0.0000   0.2889
  14.900   1.2471   0.10928   0.10070  -0.0792  0.1352  1.0000  -4.8916   0.0000   0.0000   0.0000   0.2887
  15.000   1.2460   0.11063   0.10190  -0.0793  0.1276  1.0000  -4.9246   0.0000   0.0000   0.0000   0.2886


