xflr5 v6.59

 Calculated polar for: SF-15

 1 1 Reynolds number fixed          Mach number fixed         

 xtrf =   1.000 (top)        1.000 (bottom)
 Mach =   0.050     Re =     0.060 e 6     Ncrit =   5.000

  alpha     CL        CD       CDp       Cm    Top Xtr Bot Xtr   Cpmin    Chinge    XCp    
 ------- -------- --------- --------- -------- ------- ------- -------- --------- ---------
  -3.000   0.3022   0.03818   0.03009  -0.1514  0.7962  0.0635  -1.8567   0.0000   0.0000   0.0000   0.7580
  -2.900   0.3154   0.03745   0.02930  -0.1522  0.7938  0.0643  -1.8023   0.0000   0.0000   0.0000   0.7391
  -2.800   0.3304   0.03678   0.02853  -0.1533  0.7919  0.0658  -1.7601   0.0000   0.0000   0.0000   0.7200
  -2.700   0.3489   0.03579   0.02731  -0.1551  0.7904  0.0686  -1.7335   0.0000   0.0000   0.0000   0.7001
  -2.600   0.3698   0.03450   0.02562  -0.1574  0.7893  0.0715  -1.7250   0.0000   0.0000   0.0000   0.6807
  -2.500   0.3860   0.03393   0.02499  -0.1584  0.7879  0.0735  -1.6712   0.0000   0.0000   0.0000   0.6652
  -2.400   0.4043   0.03304   0.02388  -0.1599  0.7868  0.0753  -1.6402   0.0000   0.0000   0.0000   0.6497
  -2.300   0.4237   0.03206   0.02258  -0.1614  0.7858  0.0779  -1.6178   0.0000   0.0000   0.0000   0.6350
  -2.200   0.4406   0.03154   0.02199  -0.1625  0.7848  0.0811  -1.5592   0.0000   0.0000   0.0000   0.6224
  -2.000   0.4472   0.03150   0.02180  -0.1603  0.7749  0.0853  -1.5157   0.0000   0.0000   0.0000   0.6117
  -1.900   0.4600   0.03108   0.02125  -0.1606  0.7724  0.0881  -1.4764   0.0000   0.0000   0.0000   0.6021
  -1.800   0.4737   0.03068   0.02079  -0.1611  0.7704  0.0906  -1.4283   0.0000   0.0000   0.0000   0.5927
  -1.700   0.4892   0.03020   0.02010  -0.1617  0.7688  0.0950  -1.3866   0.0000   0.0000   0.0000   0.5830
  -1.600   0.5041   0.02987   0.01979  -0.1623  0.7673  0.0994  -1.3239   0.0000   0.0000   0.0000   0.5742
  -1.500   0.5204   0.02942   0.01920  -0.1631  0.7659  0.1046  -1.2730   0.0000   0.0000   0.0000   0.5653
  -1.400   0.5365   0.02902   0.01875  -0.1638  0.7647  0.1091  -1.2136   0.0000   0.0000   0.0000   0.5570
  -1.300   0.5531   0.02863   0.01829  -0.1646  0.7636  0.1155  -1.1590   0.0000   0.0000   0.0000   0.5491
  -1.200   0.5472   0.02910   0.01878  -0.1621  0.7565  0.1168  -1.1519   0.0000   0.0000   0.0000   0.5476
  -1.100   0.5566   0.02899   0.01858  -0.1618  0.7533  0.1224  -1.1190   0.0000   0.0000   0.0000   0.5418
  -1.000   0.5690   0.02878   0.01838  -0.1620  0.7509  0.1280  -1.0737   0.0000   0.0000   0.0000   0.5356
  -0.900   0.5832   0.02854   0.01809  -0.1624  0.7490  0.1357  -1.0260   0.0000   0.0000   0.0000   0.5292
  -0.800   0.5985   0.02826   0.01776  -0.1630  0.7474  0.1446  -0.9762   0.0000   0.0000   0.0000   0.5228
  -0.700   0.6144   0.02798   0.01743  -0.1636  0.7459  0.1548  -0.9243   0.0000   0.0000   0.0000   0.5167
  -0.600   0.6308   0.02768   0.01711  -0.1644  0.7446  0.1668  -0.8753   0.0000   0.0000   0.0000   0.5108
  -0.500   0.6478   0.02738   0.01678  -0.1652  0.7435  0.1815  -0.8885   0.0000   0.0000   0.0000   0.5050
  -0.400   0.6440   0.02785   0.01727  -0.1631  0.7370  0.1857  -0.8871   0.0000   0.0000   0.0000   0.5030
  -0.300   0.6525   0.02786   0.01730  -0.1627  0.7335  0.1976  -0.8945   0.0000   0.0000   0.0000   0.4990
  -0.200   0.6650   0.02772   0.01718  -0.1629  0.7310  0.2149  -0.9047   0.0000   0.0000   0.0000   0.4944
  -0.100   0.6793   0.02751   0.01700  -0.1634  0.7290  0.2362  -0.9166   0.0000   0.0000   0.0000   0.4898
   0.000   0.6946   0.02726   0.01680  -0.1640  0.7274  0.2638  -0.9294   0.0000   0.0000   0.0000   0.4853
   0.100   0.7106   0.02698   0.01661  -0.1647  0.7259  0.2983  -0.9427   0.0000   0.0000   0.0000   0.4808
   0.200   0.7270   0.02667   0.01642  -0.1655  0.7245  0.3425  -0.9565   0.0000   0.0000   0.0000   0.4765
   0.300   0.7436   0.02634   0.01623  -0.1663  0.7233  0.3977  -0.9709   0.0000   0.0000   0.0000   0.4723
   0.400   0.7368   0.02695   0.01693  -0.1637  0.7163  0.4122  -0.9678   0.0000   0.0000   0.0000   0.4707
   0.500   0.7457   0.02689   0.01702  -0.1633  0.7131  0.4659  -0.9765   0.0000   0.0000   0.0000   0.4674
   0.600   0.7567   0.02668   0.01700  -0.1631  0.7107  0.5366  -0.9870   0.0000   0.0000   0.0000   0.4637
   0.700   0.7674   0.02634   0.01690  -0.1626  0.7088  0.6264  -0.9981   0.0000   0.0000   0.0000   0.4600
   0.800   0.7755   0.02580   0.01668  -0.1614  0.7071  0.7621  -1.0077   0.0000   0.0000   0.0000   0.4560
   0.900   0.7902   0.02551   0.01631  -0.1616  0.7054  1.0000  -1.0212   0.0000   0.0000   0.0000   0.4523
   1.000   0.8073   0.02541   0.01605  -0.1625  0.7041  1.0000  -1.0367   0.0000   0.0000   0.0000   0.4488
   1.100   0.8011   0.02610   0.01675  -0.1600  0.6973  1.0000  -1.0343   0.0000   0.0000   0.0000   0.4472
   1.200   0.8102   0.02626   0.01682  -0.1597  0.6939  1.0000  -1.0439   0.0000   0.0000   0.0000   0.4444
   1.300   0.8229   0.02629   0.01674  -0.1599  0.6914  1.0000  -1.0564   0.0000   0.0000   0.0000   0.4414
   1.400   0.8373   0.02626   0.01660  -0.1603  0.6894  1.0000  -1.0704   0.0000   0.0000   0.0000   0.4384
   1.500   0.8529   0.02619   0.01642  -0.1608  0.6877  1.0000  -1.0858   0.0000   0.0000   0.0000   0.4354
   1.600   0.8694   0.02608   0.01621  -0.1615  0.6862  1.0000  -1.1021   0.0000   0.0000   0.0000   0.4325
   1.700   0.8798   0.02620   0.01626  -0.1614  0.6834  1.0000  -1.1133   0.0000   0.0000   0.0000   0.4300
   1.800   0.8771   0.02678   0.01684  -0.1594  0.6775  1.0000  -1.1140   0.0000   0.0000   0.0000   0.4282
   1.900   0.8870   0.02690   0.01690  -0.1592  0.6744  1.0000  -1.1254   0.0000   0.0000   0.0000   0.4257
   2.000   0.9002   0.02690   0.01683  -0.1594  0.6720  1.0000  -1.1396   0.0000   0.0000   0.0000   0.4232
   2.100   0.9151   0.02684   0.01669  -0.1598  0.6701  1.0000  -1.1554   0.0000   0.0000   0.0000   0.4207
   2.200   0.9313   0.02673   0.01650  -0.1605  0.6684  1.0000  -1.1724   0.0000   0.0000   0.0000   0.4181
   2.300   0.9482   0.02660   0.01629  -0.1612  0.6669  1.0000  -1.1905   0.0000   0.0000   0.0000   0.4157
   2.400   0.9432   0.02728   0.01699  -0.1589  0.6608  1.0000  -1.1897   0.0000   0.0000   0.0000   0.4141
   2.500   0.9504   0.02750   0.01719  -0.1583  0.6571  1.0000  -1.1995   0.0000   0.0000   0.0000   0.4120
   2.600   0.9626   0.02752   0.01716  -0.1584  0.6544  1.0000  -1.2136   0.0000   0.0000   0.0000   0.4098
   2.700   0.9771   0.02746   0.01704  -0.1588  0.6523  1.0000  -1.2304   0.0000   0.0000   0.0000   0.4076
   2.800   0.9931   0.02735   0.01687  -0.1594  0.6505  1.0000  -1.2486   0.0000   0.0000   0.0000   0.4055
   2.900   1.0102   0.02721   0.01666  -0.1601  0.6489  1.0000  -1.2678   0.0000   0.0000   0.0000   0.4033
   3.000   1.0063   0.02785   0.01732  -0.1580  0.6432  1.0000  -1.2682   0.0000   0.0000   0.0000   0.4017
   3.100   1.0124   0.02811   0.01756  -0.1573  0.6393  1.0000  -1.2780   0.0000   0.0000   0.0000   0.3999
   3.200   1.0243   0.02814   0.01755  -0.1573  0.6365  1.0000  -1.2933   0.0000   0.0000   0.0000   0.3979
   3.300   1.0390   0.02807   0.01744  -0.1577  0.6343  1.0000  -1.3112   0.0000   0.0000   0.0000   0.3960
   3.400   1.0553   0.02794   0.01726  -0.1583  0.6324  1.0000  -1.3306   0.0000   0.0000   0.0000   0.3941
   3.500   1.0727   0.02778   0.01704  -0.1591  0.6307  1.0000  -1.3515   0.0000   0.0000   0.0000   0.3922
   3.600   1.0650   0.02856   0.01787  -0.1564  0.6245  1.0000  -1.3490   0.0000   0.0000   0.0000   0.3907
   3.700   1.0727   0.02875   0.01805  -0.1559  0.6209  1.0000  -1.3611   0.0000   0.0000   0.0000   0.3890
   3.800   1.0856   0.02875   0.01801  -0.1560  0.6183  1.0000  -1.3782   0.0000   0.0000   0.0000   0.3873
   3.900   1.1010   0.02864   0.01791  -0.1565  0.6160  1.0000  -1.3978   0.0000   0.0000   0.0000   0.3855
   4.000   1.1180   0.02848   0.01770  -0.1572  0.6141  1.0000  -1.4192   0.0000   0.0000   0.0000   0.3839
   4.100   1.1195   0.02892   0.01816  -0.1558  0.6097  1.0000  -1.4259   0.0000   0.0000   0.0000   0.3823
   4.200   1.1215   0.02933   0.01858  -0.1545  0.6052  1.0000  -1.4332   0.0000   0.0000   0.0000   0.3807
   4.300   1.1324   0.02940   0.01863  -0.1544  0.6021  1.0000  -1.4493   0.0000   0.0000   0.0000   0.3792
   4.400   1.1469   0.02932   0.01853  -0.1548  0.5996  1.0000  -1.4690   0.0000   0.0000   0.0000   0.3776
   4.500   1.1636   0.02916   0.01834  -0.1554  0.5975  1.0000  -1.4911   0.0000   0.0000   0.0000   0.3761
   4.600   1.1716   0.02935   0.01852  -0.1549  0.5941  1.0000  -1.5048   0.0000   0.0000   0.0000   0.3746
   4.700   1.1691   0.02993   0.01914  -0.1530  0.5890  1.0000  -1.5079   0.0000   0.0000   0.0000   0.3731
   4.800   1.1786   0.03005   0.01925  -0.1527  0.5856  1.0000  -1.5234   0.0000   0.0000   0.0000   0.3716
   4.900   1.1926   0.02998   0.01921  -0.1530  0.5829  1.0000  -1.5438   0.0000   0.0000   0.0000   0.3702
   5.000   1.2093   0.02982   0.01902  -0.1536  0.5806  1.0000  -1.5669   0.0000   0.0000   0.0000   0.3688
   5.100   1.2165   0.03004   0.01924  -0.1530  0.5771  1.0000  -1.5801   0.0000   0.0000   0.0000   0.3674
   5.200   1.2141   0.03061   0.01985  -0.1511  0.5721  1.0000  -1.5835   0.0000   0.0000   0.0000   0.3659
   5.300   1.2235   0.03072   0.01997  -0.1508  0.5686  1.0000  -1.5996   0.0000   0.0000   0.0000   0.3645
   5.400   1.2378   0.03064   0.01988  -0.1511  0.5659  1.0000  -1.6213   0.0000   0.0000   0.0000   0.3632
   5.500   1.2551   0.03046   0.01967  -0.1518  0.5635  1.0000  -1.6464   0.0000   0.0000   0.0000   0.3619
   5.600   1.2550   0.03095   0.02019  -0.1502  0.5591  1.0000  -1.6526   0.0000   0.0000   0.0000   0.3605
   5.700   1.2561   0.03137   0.02064  -0.1488  0.5546  1.0000  -1.6601   0.0000   0.0000   0.0000   0.3591
   5.800   1.2669   0.03143   0.02070  -0.1486  0.5513  1.0000  -1.6781   0.0000   0.0000   0.0000   0.3578
   5.900   1.2825   0.03130   0.02057  -0.1491  0.5486  1.0000  -1.7016   0.0000   0.0000   0.0000   0.3566
   6.000   1.3006   0.03110   0.02037  -0.1499  0.5461  1.0000  -1.7284   0.0000   0.0000   0.0000   0.3555
   6.100   1.2899   0.03194   0.02129  -0.1469  0.5407  1.0000  -1.7233   0.0000   0.0000   0.0000   0.3539
   6.200   1.2953   0.03218   0.02155  -0.1460  0.5367  1.0000  -1.7363   0.0000   0.0000   0.0000   0.3526
   6.300   1.3088   0.03214   0.02151  -0.1462  0.5336  1.0000  -1.7585   0.0000   0.0000   0.0000   0.3515
   6.400   1.3272   0.03193   0.02129  -0.1471  0.5310  1.0000  -1.7863   0.0000   0.0000   0.0000   0.3504
   6.500   1.3237   0.03249   0.02189  -0.1450  0.5265  1.0000  -1.7893   0.0000   0.0000   0.0000   0.3490
   6.600   1.3235   0.03294   0.02238  -0.1434  0.5221  1.0000  -1.7961   0.0000   0.0000   0.0000   0.3476
   6.700   1.3341   0.03299   0.02244  -0.1432  0.5187  1.0000  -1.8152   0.0000   0.0000   0.0000   0.3464
   6.800   1.3511   0.03282   0.02226  -0.1439  0.5158  1.0000  -1.8416   0.0000   0.0000   0.0000   0.3454
   6.900   1.3554   0.03312   0.02258  -0.1429  0.5120  1.0000  -1.8539   0.0000   0.0000   0.0000   0.3442
   7.000   1.3510   0.03374   0.02325  -0.1407  0.5073  1.0000  -1.8562   0.0000   0.0000   0.0000   0.3428
   7.100   1.3591   0.03388   0.02341  -0.1402  0.5036  1.0000  -1.8734   0.0000   0.0000   0.0000   0.3416
   7.200   1.3747   0.03374   0.02327  -0.1407  0.5005  1.0000  -1.8996   0.0000   0.0000   0.0000   0.3406
   7.300   1.3831   0.03389   0.02348  -0.1402  0.4970  1.0000  -1.9172   0.0000   0.0000   0.0000   0.3395
   7.400   1.3764   0.03464   0.02428  -0.1379  0.4923  1.0000  -1.9165   0.0000   0.0000   0.0000   0.3381
   7.500   1.3830   0.03484   0.02451  -0.1372  0.4884  1.0000  -1.9320   0.0000   0.0000   0.0000   0.3370
   7.600   1.3979   0.03471   0.02439  -0.1375  0.4852  1.0000  -1.9575   0.0000   0.0000   0.0000   0.3360
   7.700   1.4064   0.03486   0.02455  -0.1371  0.4816  1.0000  -1.9753   0.0000   0.0000   0.0000   0.3349
   7.800   1.3997   0.03565   0.02540  -0.1348  0.4770  1.0000  -1.9744   0.0000   0.0000   0.0000   0.3336
   7.900   1.4059   0.03589   0.02567  -0.1341  0.4731  1.0000  -1.9893   0.0000   0.0000   0.0000   0.3325
   8.000   1.4206   0.03575   0.02553  -0.1344  0.4698  1.0000  -2.0160   0.0000   0.0000   0.0000   0.3315
   8.100   1.4264   0.03602   0.02583  -0.1337  0.4661  1.0000  -2.0314   0.0000   0.0000   0.0000   0.3305
   8.200   1.4210   0.03681   0.02668  -0.1317  0.4615  1.0000  -2.0321   0.0000   0.0000   0.0000   0.3293
   8.300   1.4277   0.03703   0.02693  -0.1311  0.4576  1.0000  -2.0487   0.0000   0.0000   0.0000   0.3282
   8.400   1.4430   0.03685   0.02676  -0.1314  0.4544  1.0000  -2.0765   0.0000   0.0000   0.0000   0.3273
   8.500   1.4441   0.03737   0.02731  -0.1302  0.4504  1.0000  -2.0857   0.0000   0.0000   0.0000   0.3262
   8.600   1.4407   0.03811   0.02811  -0.1285  0.4460  1.0000  -2.0888   0.0000   0.0000   0.0000   0.3251
   8.700   1.4485   0.03828   0.02835  -0.1280  0.4422  1.0000  -2.1070   0.0000   0.0000   0.0000   0.3241
   8.800   1.4651   0.03803   0.02809  -0.1284  0.4390  1.0000  -2.1369   0.0000   0.0000   0.0000   0.3232
   8.900   1.4600   0.03889   0.02902  -0.1267  0.4347  1.0000  -2.1383   0.0000   0.0000   0.0000   0.3221
   9.000   1.4592   0.03954   0.02973  -0.1254  0.4304  1.0000  -2.1454   0.0000   0.0000   0.0000   0.3211
   9.100   1.4687   0.03964   0.02984  -0.1251  0.4268  1.0000  -2.1669   0.0000   0.0000   0.0000   0.3202
   9.200   1.4862   0.03932   0.02952  -0.1255  0.4237  1.0000  -2.2343   0.0000   0.0000   0.0000   0.3193
   9.300   1.4752   0.04056   0.03085  -0.1234  0.4191  1.0000  -2.2290   0.0000   0.0000   0.0000   0.3183
   9.400   1.4769   0.04112   0.03145  -0.1224  0.4151  1.0000  -2.2893   0.0000   0.0000   0.0000   0.3173
   9.500   1.4883   0.04110   0.03146  -0.1222  0.4116  1.0000  -2.4007   0.0000   0.0000   0.0000   0.3164
   9.600   1.4973   0.04125   0.03163  -0.1219  0.4081  1.0000  -2.5009   0.0000   0.0000   0.0000   0.3155
   9.700   1.4899   0.04238   0.03284  -0.1202  0.4037  1.0000  -2.5141   0.0000   0.0000   0.0000   0.3146
   9.800   1.4939   0.04283   0.03332  -0.1195  0.3999  1.0000  -2.5888   0.0000   0.0000   0.0000   0.3137
   9.900   1.5073   0.04269   0.03320  -0.1194  0.3966  1.0000  -2.7155   0.0000   0.0000   0.0000   0.3128
  10.000   1.5087   0.04333   0.03391  -0.1185  0.3928  1.0000  -2.7781   0.0000   0.0000   0.0000   0.3119
  10.100   1.5042   0.04435   0.03501  -0.1172  0.3887  1.0000  -2.8078   0.0000   0.0000   0.0000   0.3111
  10.200   1.5102   0.04470   0.03539  -0.1167  0.3851  1.0000  -2.8958   0.0000   0.0000   0.0000   0.3102
  10.300   1.5254   0.04443   0.03513  -0.1168  0.3819  1.0000  -3.0376   0.0000   0.0000   0.0000   0.3093
  10.400   1.5201   0.04556   0.03633  -0.1155  0.3779  1.0000  -3.0620   0.0000   0.0000   0.0000   0.3086
  10.500   1.5179   0.04649   0.03734  -0.1144  0.3740  1.0000  -3.1047   0.0000   0.0000   0.0000   0.3078
  10.600   1.5255   0.04674   0.03762  -0.1140  0.3705  1.0000  -3.2048   0.0000   0.0000   0.0000   0.3069
  10.700   1.5423   0.04636   0.03724  -0.1142  0.3675  1.0000  -3.3596   0.0000   0.0000   0.0000   0.3060
  10.800   1.5318   0.04793   0.03891  -0.1127  0.3635  1.0000  -3.3535   0.0000   0.0000   0.0000   0.3054
  10.900   1.5308   0.04883   0.03988  -0.1118  0.3598  1.0000  -3.4042   0.0000   0.0000   0.0000   0.3047
  11.000   1.5395   0.04901   0.04008  -0.1114  0.3565  1.0000  -3.5129   0.0000   0.0000   0.0000   0.3038
  11.100   1.5537   0.04878   0.03986  -0.1114  0.3534  1.0000  -3.6565   0.0000   0.0000   0.0000   0.3029
  11.200   1.5427   0.05050   0.04169  -0.1100  0.3496  1.0000  -3.6463   0.0000   0.0000   0.0000   0.3024
  11.300   1.5423   0.05141   0.04266  -0.1093  0.3460  1.0000  -3.7015   0.0000   0.0000   0.0000   0.3017
  11.400   1.5514   0.05157   0.04286  -0.1090  0.3428  1.0000  -3.8150   0.0000   0.0000   0.0000   0.3009
  11.500   1.5652   0.05137   0.04270  -0.1089  0.3399  1.0000  -3.9577   0.0000   0.0000   0.0000   0.3000
  11.600   1.5535   0.05325   0.04468  -0.1077  0.3362  1.0000  -3.9423   0.0000   0.0000   0.0000   0.2996
  11.700   1.5523   0.05428   0.04579  -0.1070  0.3327  1.0000  -3.9929   0.0000   0.0000   0.0000   0.2990
  11.800   1.5609   0.05447   0.04602  -0.1066  0.3296  1.0000  -4.1049   0.0000   0.0000   0.0000   0.2982
  11.900   1.5765   0.05409   0.04566  -0.1066  0.3267  1.0000  -4.2624   0.0000   0.0000   0.0000   0.2973
  12.000   1.5632   0.05622   0.04790  -0.1055  0.3233  1.0000  -4.2356   0.0000   0.0000   0.0000   0.2969
  12.100   1.5604   0.05747   0.04923  -0.1048  0.3199  1.0000  -4.2757   0.0000   0.0000   0.0000   0.2964
  12.200   1.5673   0.05782   0.04963  -0.1045  0.3169  1.0000  -4.3788   0.0000   0.0000   0.0000   0.2957
  12.300   1.5848   0.05723   0.04905  -0.1044  0.3141  1.0000  -4.5508   0.0000   0.0000   0.0000   0.2947
  12.400   1.5729   0.05935   0.05128  -0.1035  0.3109  1.0000  -4.5312   0.0000   0.0000   0.0000   0.2945
  12.500   1.5664   0.06103   0.05304  -0.1029  0.3076  1.0000  -4.5469   0.0000   0.0000   0.0000   0.2941
  12.600   1.5708   0.06165   0.05372  -0.1025  0.3046  1.0000  -4.6334   0.0000   0.0000   0.0000   0.2935
  12.700   1.5856   0.06123   0.05334  -0.1023  0.3019  1.0000  -4.7900   0.0000   0.0000   0.0000   0.2925
  12.800   1.5830   0.06257   0.05476  -0.1018  0.2990  1.0000  -4.8300   0.0000   0.0000   0.0000   0.2921
  12.900   1.5711   0.06490   0.05718  -0.1013  0.2958  1.0000  -4.8084   0.0000   0.0000   0.0000   0.2921
  13.000   1.5708   0.06604   0.05840  -0.1009  0.2928  1.0000  -4.8638   0.0000   0.0000   0.0000   0.2916
  13.100   1.5819   0.06594   0.05835  -0.1006  0.2900  1.0000  -4.9961   0.0000   0.0000   0.0000   0.2907
  13.200   1.5906   0.06609   0.05857  -0.1002  0.2870  1.0000  -5.1122   0.0000   0.0000   0.0000   0.2899
  13.300   1.5741   0.06907   0.06166  -0.0999  0.2842  1.0000  -5.0575   0.0000   0.0000   0.0000   0.2902
  13.400   1.5675   0.07099   0.06365  -0.0996  0.2811  1.0000  -5.0696   0.0000   0.0000   0.0000   0.2901
  13.500   1.5774   0.07083   0.06353  -0.0992  0.2776  1.0000  -5.1955   0.0000   0.0000   0.0000   0.2892
  13.600   1.5823   0.07124   0.06399  -0.0988  0.2739  1.0000  -5.2872   0.0000   0.0000   0.0000   0.2885
  13.700   1.5671   0.07436   0.06721  -0.0988  0.2714  1.0000  -5.2374   0.0000   0.0000   0.0000   0.2889
  13.800   1.5595   0.07650   0.06943  -0.0987  0.2683  1.0000  -5.2409   0.0000   0.0000   0.0000   0.2890
  13.900   1.5823   0.07421   0.06709  -0.0978  0.2626  1.0000  -5.4621   0.0000   0.0000   0.0000   0.2872
  14.000   1.5665   0.07757   0.07058  -0.0980  0.2605  1.0000  -5.4057   0.0000   0.0000   0.0000   0.2877
  14.100   1.5528   0.08075   0.07386  -0.0983  0.2581  1.0000  -5.3621   0.0000   0.0000   0.0000   0.2883
  14.200   1.5501   0.08224   0.07540  -0.0982  0.2545  1.0000  -5.3990   0.0000   0.0000   0.0000   0.2882
  14.300   1.5622   0.08129   0.07445  -0.0975  0.2492  1.0000  -5.5445   0.0000   0.0000   0.0000   0.2869
  14.400   1.5477   0.08476   0.07802  -0.0981  0.2472  1.0000  -5.4928   0.0000   0.0000   0.0000   0.2877
  14.500   1.5363   0.08780   0.08115  -0.0986  0.2446  1.0000  -5.4617   0.0000   0.0000   0.0000   0.2883
  14.600   1.5518   0.08594   0.07923  -0.0975  0.2376  1.0000  -5.6370   0.0000   0.0000   0.0000   0.2866
  14.700   1.5385   0.08940   0.08281  -0.0983  0.2357  1.0000  -5.5902   0.0000   0.0000   0.0000   0.2875
  14.800   1.5263   0.09277   0.08627  -0.0991  0.2335  1.0000  -5.5487   0.0000   0.0000   0.0000   0.2884
  14.900   1.5374   0.09139   0.08483  -0.0982  0.2257  1.0000  -5.6947   0.0000   0.0000   0.0000   0.2870
  15.000   1.5256   0.09479   0.08834  -0.0991  0.2239  1.0000  -5.6540   0.0000   0.0000   0.0000   0.2879


