xflr5 v6.59

 Calculated polar for: SF-14

 1 1 Reynolds number fixed          Mach number fixed         

 xtrf =   1.000 (top)        1.000 (bottom)
 Mach =   0.050     Re =     0.080 e 6     Ncrit =   5.000

  alpha     CL        CD       CDp       Cm    Top Xtr Bot Xtr   Cpmin    Chinge    XCp    
 ------- -------- --------- --------- -------- ------- ------- -------- --------- ---------
  -3.000   0.3377   0.02746   0.01863  -0.1534  0.7752  0.0585  -1.8506   0.0000   0.0000   0.0000   0.7102
  -2.900   0.3490   0.02706   0.01811  -0.1536  0.7726  0.0607  -1.8072   0.0000   0.0000   0.0000   0.6955
  -2.800   0.3628   0.02623   0.01694  -0.1541  0.7705  0.0635  -1.7960   0.0000   0.0000   0.0000   0.6798
  -2.700   0.3756   0.02587   0.01657  -0.1545  0.7686  0.0651  -1.7339   0.0000   0.0000   0.0000   0.6661
  -2.600   0.3896   0.02537   0.01596  -0.1550  0.7669  0.0669  -1.6856   0.0000   0.0000   0.0000   0.6523
  -2.500   0.4045   0.02477   0.01518  -0.1556  0.7655  0.0690  -1.6450   0.0000   0.0000   0.0000   0.6388
  -2.400   0.4197   0.02427   0.01453  -0.1563  0.7641  0.0720  -1.5941   0.0000   0.0000   0.0000   0.6263
  -2.300   0.4272   0.02418   0.01444  -0.1558  0.7607  0.0744  -1.5456   0.0000   0.0000   0.0000   0.6182
  -2.200   0.4330   0.02407   0.01423  -0.1549  0.7565  0.0769  -1.5127   0.0000   0.0000   0.0000   0.6110
  -2.100   0.4429   0.02379   0.01385  -0.1546  0.7535  0.0795  -1.4720   0.0000   0.0000   0.0000   0.6022
  -2.000   0.4542   0.02353   0.01357  -0.1547  0.7510  0.0818  -1.4185   0.0000   0.0000   0.0000   0.5933
  -1.900   0.4669   0.02321   0.01315  -0.1549  0.7489  0.0854  -1.3684   0.0000   0.0000   0.0000   0.5843
  -1.800   0.4802   0.02294   0.01286  -0.1552  0.7471  0.0894  -1.3078   0.0000   0.0000   0.0000   0.5756
  -1.700   0.4944   0.02264   0.01245  -0.1557  0.7454  0.0944  -1.2516   0.0000   0.0000   0.0000   0.5671
  -1.600   0.5087   0.02233   0.01213  -0.1562  0.7439  0.0983  -1.1994   0.0000   0.0000   0.0000   0.5590
  -1.500   0.5186   0.02219   0.01193  -0.1560  0.7412  0.1029  -1.1600   0.0000   0.0000   0.0000   0.5525
  -1.400   0.5234   0.02222   0.01199  -0.1549  0.7369  0.1063  -1.1267   0.0000   0.0000   0.0000   0.5476
  -1.300   0.5324   0.02213   0.01186  -0.1546  0.7338  0.1114  -1.0863   0.0000   0.0000   0.0000   0.5416
  -1.200   0.5432   0.02197   0.01170  -0.1545  0.7312  0.1164  -1.0407   0.0000   0.0000   0.0000   0.5356
  -1.100   0.5553   0.02179   0.01147  -0.1546  0.7291  0.1231  -0.9940   0.0000   0.0000   0.0000   0.5294
  -1.000   0.5683   0.02161   0.01126  -0.1549  0.7272  0.1306  -0.9433   0.0000   0.0000   0.0000   0.5233
  -0.900   0.5819   0.02140   0.01102  -0.1552  0.7255  0.1386  -0.9059   0.0000   0.0000   0.0000   0.5174
  -0.800   0.5960   0.02119   0.01079  -0.1557  0.7239  0.1480  -0.9161   0.0000   0.0000   0.0000   0.5117
  -0.700   0.6041   0.02118   0.01078  -0.1552  0.7208  0.1558  -0.9222   0.0000   0.0000   0.0000   0.5072
  -0.600   0.6102   0.02124   0.01084  -0.1543  0.7169  0.1637  -0.9268   0.0000   0.0000   0.0000   0.5031
  -0.500   0.6196   0.02120   0.01081  -0.1541  0.7139  0.1741  -0.9338   0.0000   0.0000   0.0000   0.4986
  -0.400   0.6308   0.02111   0.01072  -0.1541  0.7114  0.1861  -0.9421   0.0000   0.0000   0.0000   0.4941
  -0.300   0.6433   0.02098   0.01060  -0.1543  0.7093  0.2009  -0.9512   0.0000   0.0000   0.0000   0.4895
  -0.200   0.6567   0.02083   0.01045  -0.1547  0.7074  0.2185  -0.9612   0.0000   0.0000   0.0000   0.4850
  -0.100   0.6707   0.02066   0.01030  -0.1552  0.7057  0.2392  -0.9717   0.0000   0.0000   0.0000   0.4807
   0.000   0.6852   0.02048   0.01015  -0.1558  0.7042  0.2646  -0.9825   0.0000   0.0000   0.0000   0.4766
   0.100   0.6907   0.02055   0.01030  -0.1549  0.7005  0.2849  -0.9871   0.0000   0.0000   0.0000   0.4733
   0.200   0.6979   0.02056   0.01039  -0.1543  0.6970  0.3123  -0.9928   0.0000   0.0000   0.0000   0.4700
   0.300   0.7075   0.02045   0.01039  -0.1541  0.6942  0.3542  -1.0003   0.0000   0.0000   0.0000   0.4666
   0.400   0.7182   0.02018   0.01039  -0.1541  0.6919  0.4342  -1.0087   0.0000   0.0000   0.0000   0.4633
   0.600   0.7417   0.01907   0.01017  -0.1537  0.6880  1.0000  -1.0276   0.0000   0.0000   0.0000   0.4557
   0.700   0.7556   0.01907   0.01004  -0.1542  0.6864  1.0000  -1.0381   0.0000   0.0000   0.0000   0.4522
   0.800   0.7691   0.01908   0.00992  -0.1545  0.6847  1.0000  -1.0484   0.0000   0.0000   0.0000   0.4490
   0.900   0.7729   0.01933   0.01016  -0.1533  0.6807  1.0000  -1.0517   0.0000   0.0000   0.0000   0.4463
   1.000   0.7806   0.01949   0.01025  -0.1527  0.6775  1.0000  -1.0581   0.0000   0.0000   0.0000   0.4435
   1.100   0.7904   0.01958   0.01028  -0.1525  0.6748  1.0000  -1.0660   0.0000   0.0000   0.0000   0.4407
   1.200   0.8016   0.01964   0.01026  -0.1525  0.6725  1.0000  -1.0751   0.0000   0.0000   0.0000   0.4378
   1.300   0.8141   0.01967   0.01021  -0.1527  0.6705  1.0000  -1.0850   0.0000   0.0000   0.0000   0.4350
   1.400   0.8273   0.01968   0.01013  -0.1530  0.6687  1.0000  -1.0955   0.0000   0.0000   0.0000   0.4323
   1.500   0.8411   0.01968   0.01005  -0.1535  0.6671  1.0000  -1.1064   0.0000   0.0000   0.0000   0.4296
   1.600   0.8489   0.01985   0.01018  -0.1529  0.6643  1.0000  -1.1129   0.0000   0.0000   0.0000   0.4272
   1.700   0.8544   0.02007   0.01038  -0.1520  0.6609  1.0000  -1.1176   0.0000   0.0000   0.0000   0.4248
   1.800   0.8628   0.02021   0.01049  -0.1516  0.6581  1.0000  -1.1245   0.0000   0.0000   0.0000   0.4225
   1.900   0.8730   0.02030   0.01055  -0.1514  0.6556  1.0000  -1.1330   0.0000   0.0000   0.0000   0.4201
   2.000   0.8845   0.02036   0.01055  -0.1515  0.6535  1.0000  -1.1426   0.0000   0.0000   0.0000   0.4178
   2.100   0.8970   0.02039   0.01053  -0.1517  0.6516  1.0000  -1.1530   0.0000   0.0000   0.0000   0.4155
   2.200   0.9103   0.02041   0.01048  -0.1521  0.6499  1.0000  -1.1641   0.0000   0.0000   0.0000   0.4133
   2.300   0.9243   0.02042   0.01042  -0.1525  0.6484  1.0000  -1.1756   0.0000   0.0000   0.0000   0.4111
   2.400   0.9276   0.02071   0.01072  -0.1513  0.6449  1.0000  -1.1789   0.0000   0.0000   0.0000   0.4091
   2.500   0.9341   0.02092   0.01092  -0.1506  0.6418  1.0000  -1.1847   0.0000   0.0000   0.0000   0.4070
   2.600   0.9428   0.02106   0.01104  -0.1502  0.6392  1.0000  -1.1922   0.0000   0.0000   0.0000   0.4050
   2.700   0.9532   0.02115   0.01110  -0.1501  0.6370  1.0000  -1.2010   0.0000   0.0000   0.0000   0.4030
   2.800   0.9648   0.02122   0.01113  -0.1501  0.6350  1.0000  -1.2110   0.0000   0.0000   0.0000   0.4011
   2.900   0.9775   0.02126   0.01112  -0.1504  0.6332  1.0000  -1.2220   0.0000   0.0000   0.0000   0.3992
   3.000   0.9910   0.02128   0.01110  -0.1508  0.6316  1.0000  -1.2336   0.0000   0.0000   0.0000   0.3974
   3.100   1.0013   0.02139   0.01118  -0.1507  0.6296  1.0000  -1.2427   0.0000   0.0000   0.0000   0.3956
   3.200   1.0047   0.02169   0.01151  -0.1495  0.6262  1.0000  -1.2463   0.0000   0.0000   0.0000   0.3937
   3.300   1.0114   0.02190   0.01172  -0.1488  0.6234  1.0000  -1.2526   0.0000   0.0000   0.0000   0.3919
   3.400   1.0203   0.02204   0.01190  -0.1484  0.6210  1.0000  -1.2606   0.0000   0.0000   0.0000   0.3902
   3.500   1.0307   0.02215   0.01198  -0.1483  0.6189  1.0000  -1.2698   0.0000   0.0000   0.0000   0.3885
   3.600   1.0424   0.02221   0.01203  -0.1485  0.6170  1.0000  -1.2803   0.0000   0.0000   0.0000   0.3868
   3.700   1.0552   0.02226   0.01204  -0.1487  0.6154  1.0000  -1.2918   0.0000   0.0000   0.0000   0.3852
   3.800   1.0689   0.02229   0.01204  -0.1492  0.6139  1.0000  -1.3040   0.0000   0.0000   0.0000   0.3837
   3.900   1.0760   0.02250   0.01226  -0.1486  0.6114  1.0000  -1.3109   0.0000   0.0000   0.0000   0.3821
   4.000   1.0793   0.02281   0.01260  -0.1474  0.6083  1.0000  -1.3148   0.0000   0.0000   0.0000   0.3804
   4.100   1.0860   0.02303   0.01284  -0.1467  0.6057  1.0000  -1.3213   0.0000   0.0000   0.0000   0.3788
   4.200   1.0947   0.02318   0.01300  -0.1463  0.6034  1.0000  -1.3295   0.0000   0.0000   0.0000   0.3773
   4.300   1.1050   0.02330   0.01311  -0.1462  0.6014  1.0000  -1.3392   0.0000   0.0000   0.0000   0.3758
   4.400   1.1168   0.02337   0.01317  -0.1463  0.5996  1.0000  -1.3503   0.0000   0.0000   0.0000   0.3744
   4.500   1.1297   0.02343   0.01324  -0.1466  0.5980  1.0000  -1.3624   0.0000   0.0000   0.0000   0.3730
   4.600   1.1436   0.02346   0.01326  -0.1471  0.5966  1.0000  -1.3752   0.0000   0.0000   0.0000   0.3717
   4.700   1.1482   0.02375   0.01358  -0.1461  0.5939  1.0000  -1.3804   0.0000   0.0000   0.0000   0.3702
   4.800   1.1508   0.02409   0.01397  -0.1448  0.5909  1.0000  -1.3839   0.0000   0.0000   0.0000   0.3686
   4.900   1.1568   0.02433   0.01423  -0.1440  0.5884  1.0000  -1.3903   0.0000   0.0000   0.0000   0.3672
   5.000   1.1653   0.02450   0.01442  -0.1436  0.5862  1.0000  -1.3989   0.0000   0.0000   0.0000   0.3658
   5.100   1.1755   0.02463   0.01456  -0.1435  0.5843  1.0000  -1.4091   0.0000   0.0000   0.0000   0.3645
   5.200   1.1872   0.02471   0.01465  -0.1437  0.5826  1.0000  -1.4206   0.0000   0.0000   0.0000   0.3633
   5.300   1.2003   0.02477   0.01470  -0.1440  0.5810  1.0000  -1.4333   0.0000   0.0000   0.0000   0.3621
   5.400   1.2145   0.02481   0.01474  -0.1445  0.5796  1.0000  -1.4468   0.0000   0.0000   0.0000   0.3610
   5.500   1.2167   0.02517   0.01514  -0.1432  0.5769  1.0000  -1.4504   0.0000   0.0000   0.0000   0.3595
   5.600   1.2178   0.02555   0.01559  -0.1416  0.5740  1.0000  -1.4531   0.0000   0.0000   0.0000   0.3580
   5.700   1.2230   0.02583   0.01594  -0.1408  0.5715  1.0000  -1.4596   0.0000   0.0000   0.0000   0.3567
   5.800   1.2310   0.02602   0.01616  -0.1403  0.5693  1.0000  -1.4684   0.0000   0.0000   0.0000   0.3554
   5.900   1.2411   0.02616   0.01632  -0.1402  0.5675  1.0000  -1.4789   0.0000   0.0000   0.0000   0.3542
   6.000   1.2528   0.02625   0.01644  -0.1403  0.5658  1.0000  -1.4908   0.0000   0.0000   0.0000   0.3531
   6.100   1.2661   0.02631   0.01651  -0.1407  0.5643  1.0000  -1.5042   0.0000   0.0000   0.0000   0.3521
   6.200   1.2807   0.02635   0.01655  -0.1413  0.5630  1.0000  -1.5190   0.0000   0.0000   0.0000   0.3511
   6.300   1.2798   0.02680   0.01707  -0.1395  0.5601  1.0000  -1.5205   0.0000   0.0000   0.0000   0.3497
   6.400   1.2787   0.02726   0.01759  -0.1376  0.5572  1.0000  -1.5219   0.0000   0.0000   0.0000   0.3482
   6.500   1.2828   0.02757   0.01795  -0.1366  0.5547  1.0000  -1.5277   0.0000   0.0000   0.0000   0.3469
   6.600   1.2903   0.02779   0.01821  -0.1361  0.5527  1.0000  -1.5364   0.0000   0.0000   0.0000   0.3457
   6.700   1.3003   0.02793   0.01839  -0.1359  0.5509  1.0000  -1.5676   0.0000   0.0000   0.0000   0.3446
   6.800   1.3122   0.02803   0.01851  -0.1361  0.5492  1.0000  -1.6164   0.0000   0.0000   0.0000   0.3437
   6.900   1.3261   0.02807   0.01863  -0.1365  0.5478  1.0000  -1.6723   0.0000   0.0000   0.0000   0.3428
   7.000   1.3416   0.02809   0.01867  -0.1373  0.5465  1.0000  -1.7327   0.0000   0.0000   0.0000   0.3420
   7.100   1.3342   0.02873   0.01939  -0.1345  0.5433  1.0000  -1.7392   0.0000   0.0000   0.0000   0.3403
   7.200   1.3297   0.02927   0.01999  -0.1321  0.5404  1.0000  -1.7528   0.0000   0.0000   0.0000   0.3387
   7.300   1.3316   0.02962   0.02039  -0.1307  0.5380  1.0000  -1.7816   0.0000   0.0000   0.0000   0.3374
   7.400   1.3386   0.02985   0.02067  -0.1301  0.5360  1.0000  -1.8226   0.0000   0.0000   0.0000   0.3363
   7.500   1.3493   0.02998   0.02085  -0.1301  0.5343  1.0000  -1.8768   0.0000   0.0000   0.0000   0.3354
   7.600   1.3627   0.03005   0.02096  -0.1305  0.5327  1.0000  -1.9451   0.0000   0.0000   0.0000   0.3345
   7.700   1.3786   0.03007   0.02103  -0.1313  0.5314  1.0000  -2.0608   0.0000   0.0000   0.0000   0.3338
   7.800   1.3948   0.03010   0.02111  -0.1322  0.5300  1.0000  -2.1807   0.0000   0.0000   0.0000   0.3332
   7.900   1.3704   0.03114   0.02221  -0.1268  0.5262  1.0000  -2.1190   0.0000   0.0000   0.0000   0.3308
   8.000   1.3642   0.03177   0.02290  -0.1243  0.5233  1.0000  -2.1383   0.0000   0.0000   0.0000   0.3293
   8.100   1.3674   0.03213   0.02332  -0.1232  0.5210  1.0000  -2.2003   0.0000   0.0000   0.0000   0.3281
   8.200   1.3762   0.03231   0.02356  -0.1229  0.5191  1.0000  -2.2891   0.0000   0.0000   0.0000   0.3271
   8.300   1.3887   0.03238   0.02372  -0.1231  0.5175  1.0000  -2.3986   0.0000   0.0000   0.0000   0.3263
   8.400   1.4039   0.03238   0.02379  -0.1237  0.5162  1.0000  -2.5278   0.0000   0.0000   0.0000   0.3256
   8.500   1.4215   0.03233   0.02380  -0.1247  0.5149  1.0000  -2.6843   0.0000   0.0000   0.0000   0.3251
   8.600   1.4050   0.03331   0.02484  -0.1208  0.5116  1.0000  -2.6509   0.0000   0.0000   0.0000   0.3232
   8.700   1.3863   0.03449   0.02606  -0.1169  0.5079  1.0000  -2.6048   0.0000   0.0000   0.0000   0.3214
   8.800   1.3872   0.03499   0.02662  -0.1156  0.5054  1.0000  -2.6681   0.0000   0.0000   0.0000   0.3203
   8.900   1.3958   0.03518   0.02688  -0.1153  0.5035  1.0000  -2.7762   0.0000   0.0000   0.0000   0.3193
   9.000   1.4087   0.03521   0.02698  -0.1155  0.5019  1.0000  -2.9107   0.0000   0.0000   0.0000   0.3186
   9.100   1.4247   0.03512   0.02697  -0.1161  0.5006  1.0000  -3.0661   0.0000   0.0000   0.0000   0.3179
   9.200   1.4453   0.03485   0.02679  -0.1173  0.4992  1.0000  -3.2507   0.0000   0.0000   0.0000   0.3174
   9.300   1.4106   0.03682   0.02879  -0.1117  0.4949  1.0000  -3.1041   0.0000   0.0000   0.0000   0.3153
   9.400   1.3929   0.03826   0.03027  -0.1085  0.4909  1.0000  -3.0587   0.0000   0.0000   0.0000   0.3139
   9.500   1.3990   0.03856   0.03063  -0.1080  0.4886  1.0000  -3.1568   0.0000   0.0000   0.0000   0.3129
   9.600   1.4231   0.03772   0.02989  -0.1091  0.4863  1.0000  -3.3684   0.0000   0.0000   0.0000   0.3122
   9.700   1.4471   0.03662   0.02886  -0.1099  0.4817  1.0000  -3.5880   0.0000   0.0000   0.0000   0.3113
   9.800   1.4197   0.03879   0.03106  -0.1060  0.4790  1.0000  -3.4760   0.0000   0.0000   0.0000   0.3099
   9.900   1.4056   0.04023   0.03254  -0.1035  0.4752  1.0000  -3.4497   0.0000   0.0000   0.0000   0.3087
  10.000   1.4523   0.03695   0.02932  -0.1058  0.4663  1.0000  -3.8258   0.0000   0.0000   0.0000   0.3076
  10.100   1.4333   0.03869   0.03112  -0.1028  0.4635  1.0000  -3.7670   0.0000   0.0000   0.0000   0.3064
  10.200   1.4338   0.03888   0.03135  -0.1014  0.4578  1.0000  -3.8390   0.0000   0.0000   0.0000   0.3052
  10.300   1.4454   0.03817   0.03065  -0.1008  0.4504  1.0000  -3.9864   0.0000   0.0000   0.0000   0.3039
  10.400   1.4316   0.03962   0.03216  -0.0985  0.4467  1.0000  -3.9611   0.0000   0.0000   0.0000   0.3028
  10.500   1.4517   0.03822   0.03075  -0.0984  0.4378  1.0000  -4.1676   0.0000   0.0000   0.0000   0.3016
  10.600   1.4349   0.03997   0.03257  -0.0960  0.4344  1.0000  -4.1209   0.0000   0.0000   0.0000   0.3006
  10.700   1.4284   0.04089   0.03355  -0.0944  0.4292  1.0000  -4.1449   0.0000   0.0000   0.0000   0.2996
  10.800   1.4354   0.04064   0.03331  -0.0936  0.4219  1.0000  -4.2621   0.0000   0.0000   0.0000   0.2984
  10.900   1.4221   0.04229   0.03502  -0.0918  0.4176  1.0000  -4.2378   0.0000   0.0000   0.0000   0.2976
  11.000   1.4328   0.04170   0.03443  -0.0911  0.4093  1.0000  -4.3817   0.0000   0.0000   0.0000   0.2964
  11.100   1.4177   0.04365   0.03645  -0.0894  0.4053  1.0000  -4.3430   0.0000   0.0000   0.0000   0.2957
  11.200   1.4154   0.04439   0.03723  -0.0883  0.3989  1.0000  -4.3943   0.0000   0.0000   0.0000   0.2948
  11.300   1.4129   0.04521   0.03808  -0.0872  0.3927  1.0000  -4.4437   0.0000   0.0000   0.0000   0.2940
  11.400   1.4048   0.04667   0.03960  -0.0861  0.3873  1.0000  -4.4526   0.0000   0.0000   0.0000   0.2934
  11.500   1.4079   0.04698   0.03994  -0.0853  0.3801  1.0000  -4.5410   0.0000   0.0000   0.0000   0.2925
  11.600   1.3981   0.04875   0.04178  -0.0843  0.3750  1.0000  -4.5364   0.0000   0.0000   0.0000   0.2920
  11.700   1.4018   0.04902   0.04206  -0.0836  0.3673  1.0000  -4.6294   0.0000   0.0000   0.0000   0.2911
  11.800   1.3918   0.05094   0.04406  -0.0828  0.3621  1.0000  -4.6214   0.0000   0.0000   0.0000   0.2907
  11.900   1.3939   0.05142   0.04456  -0.0821  0.3538  1.0000  -4.7021   0.0000   0.0000   0.0000   0.2899
  12.000   1.3852   0.05329   0.04650  -0.0814  0.3479  1.0000  -4.7023   0.0000   0.0000   0.0000   0.2896
  12.100   1.3843   0.05417   0.04741  -0.0808  0.3393  1.0000  -4.7610   0.0000   0.0000   0.0000   0.2890
  12.200   1.3809   0.05542   0.04869  -0.0802  0.3306  1.0000  -4.8000   0.0000   0.0000   0.0000   0.2885
  12.300   1.3758   0.05694   0.05028  -0.0796  0.3220  1.0000  -4.8245   0.0000   0.0000   0.0000   0.2881
  12.400   1.3737   0.05806   0.05141  -0.0791  0.3109  1.0000  -4.8722   0.0000   0.0000   0.0000   0.2876
  12.500   1.3720   0.05913   0.05247  -0.0786  0.2974  1.0000  -4.9226   0.0000   0.0000   0.0000   0.2871
  12.600   1.3720   0.05986   0.05311  -0.0779  0.2779  1.0000  -4.9883   0.0000   0.0000   0.0000   0.2863
  12.700   1.3699   0.06088   0.05397  -0.0772  0.2544  1.0000  -5.0380   0.0000   0.0000   0.0000   0.2857
  12.800   1.3651   0.06226   0.05517  -0.0766  0.2303  1.0000  -5.0683   0.0000   0.0000   0.0000   0.2852
  12.900   1.3583   0.06400   0.05673  -0.0761  0.2091  1.0000  -5.0818   0.0000   0.0000   0.0000   0.2850
  13.000   1.3506   0.06597   0.05855  -0.0758  0.1906  1.0000  -5.0865   0.0000   0.0000   0.0000   0.2848
  13.100   1.3424   0.06809   0.06054  -0.0756  0.1748  1.0000  -5.0867   0.0000   0.0000   0.0000   0.2848
  13.200   1.3343   0.07027   0.06260  -0.0755  0.1606  1.0000  -5.0859   0.0000   0.0000   0.0000   0.2849
  13.300   1.3265   0.07249   0.06473  -0.0755  0.1483  1.0000  -5.0850   0.0000   0.0000   0.0000   0.2850
  13.400   1.3190   0.07472   0.06687  -0.0755  0.1373  1.0000  -5.0857   0.0000   0.0000   0.0000   0.2852
  13.500   1.3120   0.07693   0.06900  -0.0756  0.1276  1.0000  -5.0889   0.0000   0.0000   0.0000   0.2854
  13.600   1.3056   0.07910   0.07111  -0.0757  0.1189  1.0000  -5.0953   0.0000   0.0000   0.0000   0.2856
  13.700   1.2999   0.08121   0.07317  -0.0759  0.1111  1.0000  -5.1053   0.0000   0.0000   0.0000   0.2858
  13.800   1.2947   0.08328   0.07519  -0.0761  0.1041  1.0000  -5.1184   0.0000   0.0000   0.0000   0.2860
  13.900   1.2900   0.08531   0.07719  -0.0763  0.0979  1.0000  -5.1340   0.0000   0.0000   0.0000   0.2862
  14.000   1.2855   0.08732   0.07916  -0.0766  0.0924  1.0000  -5.1511   0.0000   0.0000   0.0000   0.2864
  14.100   1.2821   0.08920   0.08102  -0.0768  0.0867  1.0000  -5.1750   0.0000   0.0000   0.0000   0.2866
  14.200   1.2786   0.09109   0.08288  -0.0771  0.0819  1.0000  -5.1982   0.0000   0.0000   0.0000   0.2867
  14.300   1.2757   0.09291   0.08469  -0.0774  0.0772  1.0000  -5.2250   0.0000   0.0000   0.0000   0.2869
  14.400   1.2733   0.09466   0.08643  -0.0776  0.0726  1.0000  -5.2551   0.0000   0.0000   0.0000   0.2871
  14.500   1.2708   0.09645   0.08819  -0.0780  0.0687  1.0000  -5.2840   0.0000   0.0000   0.0000   0.2872
  14.600   1.2693   0.09807   0.08983  -0.0782  0.0644  1.0000  -5.3192   0.0000   0.0000   0.0000   0.2873
  14.700   1.2670   0.09983   0.09156  -0.0786  0.0609  1.0000  -5.3496   0.0000   0.0000   0.0000   0.2875
  14.800   1.2663   0.10135   0.09310  -0.0789  0.0564  1.0000  -5.3889   0.0000   0.0000   0.0000   0.2876
  14.900   1.2644   0.10306   0.09477  -0.0793  0.0530  1.0000  -5.4215   0.0000   0.0000   0.0000   0.2878
  15.000   1.2639   0.10456   0.09629  -0.0796  0.0485  1.0000  -5.4626   0.0000   0.0000   0.0000   0.2879


