xflr5 v6.59

 Calculated polar for: SF-12

 1 1 Reynolds number fixed          Mach number fixed         

 xtrf =   1.000 (top)        1.000 (bottom)
 Mach =   0.050     Re =     0.130 e 6     Ncrit =   5.000

  alpha     CL        CD       CDp       Cm    Top Xtr Bot Xtr   Cpmin    Chinge    XCp    
 ------- -------- --------- --------- -------- ------- ------- -------- --------- ---------
  -3.000   0.3033   0.01817   0.00902  -0.1291  0.7209  0.0957  -1.5495   0.0000   0.0000   0.0000   0.6823
  -2.900   0.3142   0.01805   0.00888  -0.1290  0.7192  0.0982  -1.5052   0.0000   0.0000   0.0000   0.6667
  -2.800   0.3253   0.01795   0.00878  -0.1290  0.7177  0.1007  -1.4596   0.0000   0.0000   0.0000   0.6521
  -2.700   0.3365   0.01784   0.00861  -0.1289  0.7162  0.1038  -1.4160   0.0000   0.0000   0.0000   0.6383
  -2.600   0.3479   0.01773   0.00845  -0.1289  0.7149  0.1068  -1.3718   0.0000   0.0000   0.0000   0.6252
  -2.500   0.3580   0.01769   0.00842  -0.1287  0.7129  0.1096  -1.3286   0.0000   0.0000   0.0000   0.6139
  -2.400   0.3679   0.01764   0.00836  -0.1285  0.7106  0.1131  -1.2884   0.0000   0.0000   0.0000   0.6034
  -2.300   0.3779   0.01758   0.00831  -0.1283  0.7084  0.1161  -1.2473   0.0000   0.0000   0.0000   0.5933
  -2.200   0.3881   0.01753   0.00827  -0.1281  0.7062  0.1192  -1.2051   0.0000   0.0000   0.0000   0.5836
  -2.100   0.3987   0.01747   0.00817  -0.1280  0.7042  0.1231  -1.1664   0.0000   0.0000   0.0000   0.5742
  -2.000   0.4093   0.01740   0.00811  -0.1279  0.7022  0.1264  -1.1282   0.0000   0.0000   0.0000   0.5652
  -1.900   0.4202   0.01734   0.00804  -0.1278  0.7004  0.1303  -1.0903   0.0000   0.0000   0.0000   0.5566
  -1.800   0.4313   0.01726   0.00793  -0.1277  0.6988  0.1343  -1.0532   0.0000   0.0000   0.0000   0.5484
  -1.700   0.4424   0.01720   0.00786  -0.1277  0.6972  0.1381  -1.0146   0.0000   0.0000   0.0000   0.5405
  -1.600   0.4538   0.01713   0.00773  -0.1276  0.6958  0.1429  -0.9773   0.0000   0.0000   0.0000   0.5329
  -1.500   0.4652   0.01707   0.00767  -0.1276  0.6944  0.1468  -0.9386   0.0000   0.0000   0.0000   0.5258
  -1.400   0.4749   0.01706   0.00767  -0.1274  0.6921  0.1512  -0.9044   0.0000   0.0000   0.0000   0.5195
  -1.300   0.4844   0.01704   0.00768  -0.1271  0.6896  0.1553  -0.8704   0.0000   0.0000   0.0000   0.5134
  -1.200   0.4944   0.01702   0.00768  -0.1269  0.6873  0.1598  -0.8501   0.0000   0.0000   0.0000   0.5075
  -1.100   0.5047   0.01700   0.00764  -0.1267  0.6851  0.1647  -0.8584   0.0000   0.0000   0.0000   0.5017
  -1.000   0.5152   0.01696   0.00762  -0.1266  0.6830  0.1692  -0.8670   0.0000   0.0000   0.0000   0.4961
  -0.900   0.5260   0.01692   0.00756  -0.1264  0.6811  0.1746  -0.8760   0.0000   0.0000   0.0000   0.4906
  -0.800   0.5369   0.01686   0.00752  -0.1264  0.6793  0.1793  -0.8852   0.0000   0.0000   0.0000   0.4854
  -0.700   0.5481   0.01682   0.00744  -0.1263  0.6776  0.1853  -0.8946   0.0000   0.0000   0.0000   0.4803
  -0.600   0.5593   0.01676   0.00739  -0.1263  0.6760  0.1902  -0.9043   0.0000   0.0000   0.0000   0.4754
  -0.400   0.5803   0.01672   0.00734  -0.1260  0.6722  0.2014  -0.9227   0.0000   0.0000   0.0000   0.4663
  -0.300   0.5896   0.01673   0.00738  -0.1256  0.6696  0.2075  -0.9311   0.0000   0.0000   0.0000   0.4622
  -0.200   0.5993   0.01672   0.00740  -0.1254  0.6671  0.2127  -0.9399   0.0000   0.0000   0.0000   0.4582
  -0.100   0.6095   0.01671   0.00739  -0.1252  0.6648  0.2194  -0.9493   0.0000   0.0000   0.0000   0.4542
   0.000   0.6198   0.01668   0.00738  -0.1250  0.6627  0.2253  -0.9590   0.0000   0.0000   0.0000   0.4503
   0.100   0.6306   0.01664   0.00735  -0.1249  0.6607  0.2324  -0.9689   0.0000   0.0000   0.0000   0.4465
   0.200   0.6415   0.01659   0.00731  -0.1248  0.6588  0.2392  -0.9790   0.0000   0.0000   0.0000   0.4428
   0.300   0.6527   0.01655   0.00725  -0.1247  0.6571  0.2468  -0.9896   0.0000   0.0000   0.0000   0.4392
   0.400   0.6642   0.01650   0.00719  -0.1247  0.6555  0.2551  -1.0005   0.0000   0.0000   0.0000   0.4358
   0.500   0.6743   0.01649   0.00720  -0.1245  0.6534  0.2627  -1.0103   0.0000   0.0000   0.0000   0.4325
   0.600   0.6831   0.01651   0.00727  -0.1242  0.6506  0.2709  -1.0192   0.0000   0.0000   0.0000   0.4294
   0.700   0.6927   0.01651   0.00731  -0.1239  0.6479  0.2800  -1.0288   0.0000   0.0000   0.0000   0.4264
   0.800   0.7026   0.01649   0.00732  -0.1236  0.6454  0.2897  -1.0389   0.0000   0.0000   0.0000   0.4234
   0.900   0.7129   0.01646   0.00731  -0.1235  0.6431  0.3008  -1.0494   0.0000   0.0000   0.0000   0.4204
   1.000   0.7234   0.01641   0.00728  -0.1233  0.6410  0.3135  -1.0601   0.0000   0.0000   0.0000   0.4176
   1.100   0.7343   0.01634   0.00724  -0.1232  0.6390  0.3286  -1.0711   0.0000   0.0000   0.0000   0.4148
   1.200   0.7455   0.01626   0.00719  -0.1232  0.6373  0.3480  -1.0827   0.0000   0.0000   0.0000   0.4120
   1.300   0.7571   0.01614   0.00714  -0.1232  0.6356  0.3764  -1.0947   0.0000   0.0000   0.0000   0.4094
   1.400   0.7653   0.01605   0.00725  -0.1228  0.6326  0.4259  -1.1040   0.0000   0.0000   0.0000   0.4070
   1.500   0.7846   0.01498   0.00734  -0.1241  0.6298  1.0000  -1.1215   0.0000   0.0000   0.0000   0.4046
   1.600   0.7942   0.01504   0.00737  -0.1238  0.6270  1.0000  -1.1320   0.0000   0.0000   0.0000   0.4022
   1.700   0.8043   0.01509   0.00737  -0.1236  0.6245  1.0000  -1.1433   0.0000   0.0000   0.0000   0.3998
   1.800   0.8148   0.01512   0.00735  -0.1234  0.6222  1.0000  -1.1550   0.0000   0.0000   0.0000   0.3974
   1.900   0.8256   0.01514   0.00733  -0.1233  0.6200  1.0000  -1.1670   0.0000   0.0000   0.0000   0.3951
   2.000   0.8369   0.01516   0.00728  -0.1232  0.6181  1.0000  -1.1794   0.0000   0.0000   0.0000   0.3929
   2.100   0.8477   0.01520   0.00726  -0.1231  0.6160  1.0000  -1.1916   0.0000   0.0000   0.0000   0.3908
   2.200   0.8558   0.01530   0.00738  -0.1226  0.6128  1.0000  -1.2017   0.0000   0.0000   0.0000   0.3887
   2.300   0.8648   0.01539   0.00745  -0.1222  0.6097  1.0000  -1.2127   0.0000   0.0000   0.0000   0.3866
   2.400   0.8745   0.01545   0.00748  -0.1219  0.6069  1.0000  -1.2242   0.0000   0.0000   0.0000   0.3846
   2.500   0.8846   0.01549   0.00749  -0.1217  0.6043  1.0000  -1.2362   0.0000   0.0000   0.0000   0.3826
   2.600   0.8951   0.01552   0.00748  -0.1215  0.6019  1.0000  -1.2488   0.0000   0.0000   0.0000   0.3806
   2.700   0.9062   0.01554   0.00744  -0.1214  0.5998  1.0000  -1.2622   0.0000   0.0000   0.0000   0.3787
   2.800   0.9173   0.01557   0.00742  -0.1213  0.5977  1.0000  -1.2756   0.0000   0.0000   0.0000   0.3769
   2.900   0.9251   0.01568   0.00756  -0.1208  0.5943  1.0000  -1.2861   0.0000   0.0000   0.0000   0.3750
   3.000   0.9338   0.01577   0.00764  -0.1204  0.5910  1.0000  -1.2974   0.0000   0.0000   0.0000   0.3732
   3.100   0.9432   0.01584   0.00769  -0.1200  0.5880  1.0000  -1.3096   0.0000   0.0000   0.0000   0.3715
   3.200   0.9532   0.01588   0.00771  -0.1198  0.5853  1.0000  -1.3226   0.0000   0.0000   0.0000   0.3697
   3.300   0.9637   0.01591   0.00771  -0.1196  0.5828  1.0000  -1.3362   0.0000   0.0000   0.0000   0.3680
   3.400   0.9749   0.01593   0.00770  -0.1196  0.5806  1.0000  -1.3504   0.0000   0.0000   0.0000   0.3664
   3.500   0.9839   0.01602   0.00778  -0.1192  0.5776  1.0000  -1.3626   0.0000   0.0000   0.0000   0.3648
   3.600   0.9920   0.01612   0.00791  -0.1187  0.5741  1.0000  -1.3742   0.0000   0.0000   0.0000   0.3631
   3.700   1.0009   0.01621   0.00798  -0.1183  0.5709  1.0000  -1.3868   0.0000   0.0000   0.0000   0.3615
   3.800   1.0104   0.01626   0.00803  -0.1179  0.5679  1.0000  -1.4002   0.0000   0.0000   0.0000   0.3600
   3.900   1.0206   0.01630   0.00804  -0.1177  0.5652  1.0000  -1.4142   0.0000   0.0000   0.0000   0.3585
   4.000   1.0314   0.01633   0.00802  -0.1176  0.5627  1.0000  -1.4288   0.0000   0.0000   0.0000   0.3570
   4.100   1.0405   0.01641   0.00809  -0.1172  0.5597  1.0000  -1.4419   0.0000   0.0000   0.0000   0.3555
   4.200   1.0483   0.01653   0.00823  -0.1167  0.5560  1.0000  -1.4542   0.0000   0.0000   0.0000   0.3540
   4.300   1.0568   0.01662   0.00832  -0.1162  0.5526  1.0000  -1.4672   0.0000   0.0000   0.0000   0.3525
   4.400   1.0662   0.01668   0.00837  -0.1159  0.5495  1.0000  -1.4811   0.0000   0.0000   0.0000   0.3511
   4.500   1.0763   0.01673   0.00840  -0.1157  0.5466  1.0000  -1.4958   0.0000   0.0000   0.0000   0.3497
   4.600   1.0871   0.01676   0.00839  -0.1155  0.5441  1.0000  -1.5113   0.0000   0.0000   0.0000   0.3484
   4.700   1.0946   0.01688   0.00854  -0.1149  0.5404  1.0000  -1.5240   0.0000   0.0000   0.0000   0.3470
   4.800   1.1023   0.01700   0.00867  -0.1144  0.5367  1.0000  -1.5369   0.0000   0.0000   0.0000   0.3456
   4.900   1.1109   0.01708   0.00875  -0.1139  0.5332  1.0000  -1.5508   0.0000   0.0000   0.0000   0.3442
   5.000   1.1203   0.01715   0.00879  -0.1136  0.5300  1.0000  -1.5655   0.0000   0.0000   0.0000   0.3429
   5.100   1.1305   0.01720   0.00881  -0.1134  0.5272  1.0000  -1.5811   0.0000   0.0000   0.0000   0.3417
   5.200   1.1388   0.01730   0.00891  -0.1129  0.5238  1.0000  -1.5954   0.0000   0.0000   0.0000   0.3404
   5.300   1.1460   0.01743   0.00906  -0.1122  0.5199  1.0000  -1.6084   0.0000   0.0000   0.0000   0.3391
   5.400   1.1540   0.01753   0.00916  -0.1117  0.5162  1.0000  -1.6225   0.0000   0.0000   0.0000   0.3378
   5.500   1.1629   0.01761   0.00923  -0.1113  0.5129  1.0000  -1.6375   0.0000   0.0000   0.0000   0.3365
   5.600   1.1725   0.01767   0.00926  -0.1110  0.5098  1.0000  -1.6533   0.0000   0.0000   0.0000   0.3353
   5.700   1.1805   0.01779   0.00940  -0.1104  0.5064  1.0000  -1.6679   0.0000   0.0000   0.0000   0.3341
   5.800   1.1872   0.01792   0.00956  -0.1097  0.5024  1.0000  -1.6812   0.0000   0.0000   0.0000   0.3328
   5.900   1.1948   0.01803   0.00967  -0.1091  0.4986  1.0000  -1.6957   0.0000   0.0000   0.0000   0.3316
   6.000   1.2033   0.01813   0.00975  -0.1086  0.4951  1.0000  -1.7110   0.0000   0.0000   0.0000   0.3304
   6.100   1.2125   0.01821   0.00980  -0.1083  0.4920  1.0000  -1.7272   0.0000   0.0000   0.0000   0.3293
   6.200   1.2192   0.01835   0.00996  -0.1076  0.4882  1.0000  -1.7412   0.0000   0.0000   0.0000   0.3280
   6.300   1.2256   0.01849   0.01012  -0.1068  0.4842  1.0000  -1.7550   0.0000   0.0000   0.0000   0.3268
   6.400   1.2329   0.01861   0.01024  -0.1061  0.4805  1.0000  -1.7698   0.0000   0.0000   0.0000   0.3256
   6.500   1.2410   0.01871   0.01032  -0.1056  0.4770  1.0000  -1.7856   0.0000   0.0000   0.0000   0.3244
   6.600   1.2493   0.01882   0.01040  -0.1051  0.4738  1.0000  -1.8017   0.0000   0.0000   0.0000   0.3233
   6.700   1.2545   0.01899   0.01060  -0.1042  0.4697  1.0000  -1.8147   0.0000   0.0000   0.0000   0.3221
   6.800   1.2605   0.01913   0.01076  -0.1033  0.4658  1.0000  -1.8290   0.0000   0.0000   0.0000   0.3209
   6.900   1.2674   0.01926   0.01088  -0.1026  0.4621  1.0000  -1.8442   0.0000   0.0000   0.0000   0.3197
   7.000   1.2752   0.01938   0.01099  -0.1020  0.4587  1.0000  -1.8605   0.0000   0.0000   0.0000   0.3186
   7.100   1.2810   0.01954   0.01116  -0.1012  0.4550  1.0000  -1.8745   0.0000   0.0000   0.0000   0.3174
   7.200   1.2852   0.01970   0.01135  -0.1000  0.4511  1.0000  -1.8872   0.0000   0.0000   0.0000   0.3161
   7.300   1.2900   0.01985   0.01151  -0.0990  0.4473  1.0000  -1.9010   0.0000   0.0000   0.0000   0.3148
   7.400   1.2959   0.01999   0.01163  -0.0981  0.4438  1.0000  -1.9160   0.0000   0.0000   0.0000   0.3136
   7.500   1.3024   0.02013   0.01174  -0.0973  0.4406  1.0000  -1.9319   0.0000   0.0000   0.0000   0.3125
   7.600   1.3053   0.02032   0.01197  -0.0960  0.4367  1.0000  -1.9434   0.0000   0.0000   0.0000   0.3112
   7.700   1.3093   0.02051   0.01217  -0.0948  0.4329  1.0000  -1.9564   0.0000   0.0000   0.0000   0.3099
   7.800   1.3143   0.02068   0.01234  -0.0938  0.4292  1.0000  -1.9712   0.0000   0.0000   0.0000   0.3087
   7.900   1.3204   0.02084   0.01247  -0.0930  0.4259  1.0000  -1.9872   0.0000   0.0000   0.0000   0.3076
   8.000   1.3246   0.02104   0.01269  -0.0919  0.4223  1.0000  -2.0009   0.0000   0.0000   0.0000   0.3064
   8.100   1.3277   0.02126   0.01293  -0.0907  0.4185  1.0000  -2.0134   0.0000   0.0000   0.0000   0.3052
   8.200   1.3318   0.02146   0.01315  -0.0897  0.4148  1.0000  -2.0273   0.0000   0.0000   0.0000   0.3040
   8.300   1.3370   0.02166   0.01333  -0.0888  0.4113  1.0000  -2.0431   0.0000   0.0000   0.0000   0.3029
   8.400   1.3425   0.02185   0.01352  -0.0879  0.4080  1.0000  -2.0593   0.0000   0.0000   0.0000   0.3019
   8.500   1.3452   0.02210   0.01382  -0.0867  0.4042  1.0000  -2.0719   0.0000   0.0000   0.0000   0.3007
   8.600   1.3487   0.02235   0.01408  -0.0856  0.4005  1.0000  -2.0854   0.0000   0.0000   0.0000   0.2996
   8.700   1.3530   0.02257   0.01431  -0.0847  0.3970  1.0000  -2.1008   0.0000   0.0000   0.0000   0.2985
   8.800   1.3583   0.02279   0.01450  -0.0839  0.3937  1.0000  -2.1177   0.0000   0.0000   0.0000   0.2975
   8.900   1.3618   0.02305   0.01479  -0.0828  0.3902  1.0000  -2.1319   0.0000   0.0000   0.0000   0.2964
   9.000   1.3648   0.02333   0.01510  -0.0817  0.3865  1.0000  -2.1459   0.0000   0.0000   0.0000   0.2953
   9.100   1.3685   0.02359   0.01537  -0.0808  0.3829  1.0000  -2.1614   0.0000   0.0000   0.0000   0.2942
   9.200   1.3731   0.02384   0.01561  -0.0799  0.3796  1.0000  -2.1781   0.0000   0.0000   0.0000   0.2932
   9.300   1.3776   0.02410   0.01586  -0.0790  0.3764  1.0000  -2.1956   0.0000   0.0000   0.0000   0.2923
   9.400   1.3802   0.02442   0.01623  -0.0780  0.3727  1.0000  -2.2105   0.0000   0.0000   0.0000   0.2912
   9.500   1.3835   0.02473   0.01655  -0.0770  0.3691  1.0000  -2.2273   0.0000   0.0000   0.0000   0.2902
   9.600   1.3874   0.02502   0.01684  -0.0761  0.3658  1.0000  -2.2834   0.0000   0.0000   0.0000   0.2892
   9.700   1.3921   0.02529   0.01709  -0.0754  0.3627  1.0000  -2.3532   0.0000   0.0000   0.0000   0.2883
   9.800   1.3946   0.02564   0.01750  -0.0744  0.3591  1.0000  -2.4136   0.0000   0.0000   0.0000   0.2873
   9.900   1.3966   0.02600   0.01790  -0.0733  0.3551  1.0000  -2.4717   0.0000   0.0000   0.0000   0.2863
  10.000   1.3988   0.02636   0.01825  -0.0723  0.3508  1.0000  -2.5315   0.0000   0.0000   0.0000   0.2853
  10.100   1.4009   0.02673   0.01858  -0.0712  0.3465  1.0000  -2.5916   0.0000   0.0000   0.0000   0.2843
  10.200   1.4010   0.02718   0.01908  -0.0701  0.3415  1.0000  -2.6415   0.0000   0.0000   0.0000   0.2833
  10.300   1.4016   0.02763   0.01951  -0.0689  0.3365  1.0000  -2.6947   0.0000   0.0000   0.0000   0.2823
  10.400   1.4024   0.02807   0.01992  -0.0679  0.3316  1.0000  -2.7497   0.0000   0.0000   0.0000   0.2813
  10.500   1.4020   0.02859   0.02048  -0.0667  0.3262  1.0000  -2.7977   0.0000   0.0000   0.0000   0.2803
  10.600   1.4019   0.02910   0.02096  -0.0656  0.3209  1.0000  -2.8487   0.0000   0.0000   0.0000   0.2793
  10.700   1.4019   0.02963   0.02148  -0.0645  0.3157  1.0000  -2.8994   0.0000   0.0000   0.0000   0.2784
  10.800   1.4014   0.03020   0.02206  -0.0635  0.3101  1.0000  -2.9482   0.0000   0.0000   0.0000   0.2775
  10.900   1.4012   0.03076   0.02258  -0.0624  0.3049  1.0000  -2.9989   0.0000   0.0000   0.0000   0.2765
  11.000   1.4008   0.03136   0.02321  -0.0615  0.2993  1.0000  -3.0480   0.0000   0.0000   0.0000   0.2757
  11.100   1.4003   0.03198   0.02382  -0.0605  0.2938  1.0000  -3.0972   0.0000   0.0000   0.0000   0.2748
  11.200   1.4001   0.03260   0.02442  -0.0596  0.2887  1.0000  -3.1479   0.0000   0.0000   0.0000   0.2739
  11.300   1.4000   0.03324   0.02508  -0.0587  0.2832  1.0000  -3.1987   0.0000   0.0000   0.0000   0.2731
  11.400   1.3997   0.03389   0.02570  -0.0578  0.2783  1.0000  -3.2492   0.0000   0.0000   0.0000   0.2723
  11.500   1.4001   0.03453   0.02636  -0.0571  0.2733  1.0000  -3.3027   0.0000   0.0000   0.0000   0.2715
  11.600   1.4003   0.03520   0.02703  -0.0563  0.2684  1.0000  -3.3556   0.0000   0.0000   0.0000   0.2708
  11.700   1.4004   0.03587   0.02768  -0.0555  0.2644  1.0000  -3.4088   0.0000   0.0000   0.0000   0.2700
  11.800   1.4020   0.03648   0.02835  -0.0549  0.2600  1.0000  -3.4678   0.0000   0.0000   0.0000   0.2694
  11.900   1.4034   0.03711   0.02900  -0.0543  0.2563  1.0000  -3.5271   0.0000   0.0000   0.0000   0.2687
  12.000   1.4048   0.03774   0.02963  -0.0537  0.2532  1.0000  -3.5866   0.0000   0.0000   0.0000   0.2680
  12.100   1.4066   0.03836   0.03027  -0.0531  0.2502  1.0000  -3.6481   0.0000   0.0000   0.0000   0.2673
  12.200   1.4088   0.03896   0.03092  -0.0526  0.2468  1.0000  -3.7117   0.0000   0.0000   0.0000   0.2667
  12.300   1.4103   0.03962   0.03160  -0.0520  0.2435  1.0000  -3.7722   0.0000   0.0000   0.0000   0.2661
  12.400   1.4115   0.04031   0.03230  -0.0514  0.2405  1.0000  -3.8309   0.0000   0.0000   0.0000   0.2654
  12.500   1.4131   0.04097   0.03299  -0.0509  0.2374  1.0000  -3.8923   0.0000   0.0000   0.0000   0.2648
  12.600   1.4149   0.04164   0.03370  -0.0504  0.2340  1.0000  -3.9543   0.0000   0.0000   0.0000   0.2642
  12.700   1.4160   0.04237   0.03445  -0.0499  0.2307  1.0000  -4.0129   0.0000   0.0000   0.0000   0.2636
  12.800   1.4167   0.04314   0.03522  -0.0494  0.2277  1.0000  -4.0693   0.0000   0.0000   0.0000   0.2631
  12.900   1.4183   0.04385   0.03597  -0.0490  0.2244  1.0000  -4.1306   0.0000   0.0000   0.0000   0.2625
  13.000   1.4194   0.04461   0.03677  -0.0485  0.2207  1.0000  -4.1892   0.0000   0.0000   0.0000   0.2620
  13.100   1.4191   0.04549   0.03765  -0.0481  0.2169  1.0000  -4.2404   0.0000   0.0000   0.0000   0.2614
  13.200   1.4190   0.04637   0.03855  -0.0476  0.2128  1.0000  -4.2926   0.0000   0.0000   0.0000   0.2609
  13.300   1.4186   0.04730   0.03950  -0.0472  0.2080  1.0000  -4.3430   0.0000   0.0000   0.0000   0.2604
  13.400   1.4168   0.04835   0.04053  -0.0468  0.2036  1.0000  -4.3861   0.0000   0.0000   0.0000   0.2599
  13.500   1.4162   0.04935   0.04155  -0.0464  0.1981  1.0000  -4.4347   0.0000   0.0000   0.0000   0.2594
  13.600   1.4141   0.05047   0.04268  -0.0460  0.1932  1.0000  -4.4756   0.0000   0.0000   0.0000   0.2590
  13.700   1.4129   0.05156   0.04378  -0.0457  0.1875  1.0000  -4.5209   0.0000   0.0000   0.0000   0.2586
  13.800   1.4103   0.05278   0.04498  -0.0454  0.1824  1.0000  -4.5583   0.0000   0.0000   0.0000   0.2582
  13.900   1.4089   0.05391   0.04613  -0.0451  0.1765  1.0000  -4.6025   0.0000   0.0000   0.0000   0.2578
  14.000   1.4062   0.05519   0.04740  -0.0448  0.1716  1.0000  -4.6385   0.0000   0.0000   0.0000   0.2575
  14.100   1.4050   0.05635   0.04857  -0.0446  0.1660  1.0000  -4.6831   0.0000   0.0000   0.0000   0.2571
  14.200   1.4028   0.05763   0.04984  -0.0444  0.1614  1.0000  -4.7214   0.0000   0.0000   0.0000   0.2568
  14.300   1.4021   0.05877   0.05101  -0.0443  0.1567  1.0000  -4.7684   0.0000   0.0000   0.0000   0.2565
  14.400   1.4007   0.06001   0.05225  -0.0441  0.1528  1.0000  -4.8107   0.0000   0.0000   0.0000   0.2562
  14.500   1.3999   0.06119   0.05346  -0.0440  0.1487  1.0000  -4.8562   0.0000   0.0000   0.0000   0.2559
  14.600   1.3987   0.06243   0.05472  -0.0439  0.1446  1.0000  -4.8995   0.0000   0.0000   0.0000   0.2557
  14.700   1.3968   0.06377   0.05607  -0.0439  0.1405  1.0000  -4.9381   0.0000   0.0000   0.0000   0.2555
  14.800   1.3950   0.06513   0.05744  -0.0438  0.1356  1.0000  -4.9768   0.0000   0.0000   0.0000   0.2553
  14.900   1.3921   0.06663   0.05894  -0.0439  0.1307  1.0000  -5.0091   0.0000   0.0000   0.0000   0.2551
  15.000   1.3891   0.06818   0.06049  -0.0439  0.1253  1.0000  -5.0397   0.0000   0.0000   0.0000   0.2550


