xflr5 v6.59

 Calculated polar for: SF-15

 1 1 Reynolds number fixed          Mach number fixed         

 xtrf =   1.000 (top)        1.000 (bottom)
 Mach =   0.050     Re =     0.040 e 6     Ncrit =   5.000

  alpha     CL        CD       CDp       Cm    Top Xtr Bot Xtr   Cpmin    Chinge    XCp    
 ------- -------- --------- --------- -------- ------- ------- -------- --------- ---------
  -3.000   0.0818   0.06323   0.05600  -0.1073  0.8158  0.0830  -1.7486   0.0000   0.0000   0.0000   1.5876
  -2.900   0.1014   0.06118   0.05381  -0.1112  0.8137  0.0823  -1.7438   0.0000   0.0000   0.0000   1.3663
  -2.800   0.1241   0.05894   0.05139  -0.1157  0.8120  0.0817  -1.7395   0.0000   0.0000   0.0000   1.1981
  -2.700   0.1483   0.05668   0.04892  -0.1202  0.8105  0.0814  -1.7300   0.0000   0.0000   0.0000   1.0739
  -2.600   0.1715   0.05476   0.04680  -0.1242  0.8091  0.0820  -1.7040   0.0000   0.0000   0.0000   0.9850
  -2.500   0.1962   0.05289   0.04468  -0.1283  0.8079  0.0842  -1.6716   0.0000   0.0000   0.0000   0.9133
  -2.400   0.2283   0.05029   0.04160  -0.1343  0.8071  0.0869  -1.6666   0.0000   0.0000   0.0000   0.8463
  -2.300   0.2446   0.04955   0.04081  -0.1356  0.8057  0.0888  -1.5917   0.0000   0.0000   0.0000   0.8115
  -2.200   0.2438   0.04942   0.04063  -0.1345  0.8003  0.0892  -1.5920   0.0000   0.0000   0.0000   0.8087
  -2.100   0.2561   0.04856   0.03961  -0.1357  0.7970  0.0900  -1.5875   0.0000   0.0000   0.0000   0.7861
  -2.000   0.2726   0.04751   0.03830  -0.1374  0.7945  0.0911  -1.5818   0.0000   0.0000   0.0000   0.7599
  -1.900   0.2921   0.04634   0.03680  -0.1397  0.7924  0.0936  -1.5772   0.0000   0.0000   0.0000   0.7334
  -1.800   0.3092   0.04554   0.03581  -0.1412  0.7904  0.0968  -1.5494   0.0000   0.0000   0.0000   0.7113
  -1.700   0.3255   0.04491   0.03504  -0.1424  0.7886  0.1003  -1.5118   0.0000   0.0000   0.0000   0.6916
  -1.600   0.3468   0.04383   0.03353  -0.1445  0.7872  0.1036  -1.5003   0.0000   0.0000   0.0000   0.6703
  -1.500   0.3638   0.04321   0.03284  -0.1456  0.7858  0.1061  -1.4556   0.0000   0.0000   0.0000   0.6535
  -1.400   0.3824   0.04258   0.03200  -0.1469  0.7845  0.1109  -1.4143   0.0000   0.0000   0.0000   0.6372
  -1.300   0.3805   0.04280   0.03208  -0.1454  0.7787  0.1125  -1.4131   0.0000   0.0000   0.0000   0.6351
  -1.200   0.3872   0.04275   0.03204  -0.1450  0.7749  0.1153  -1.3772   0.0000   0.0000   0.0000   0.6272
  -1.100   0.3995   0.04245   0.03160  -0.1454  0.7722  0.1194  -1.3416   0.0000   0.0000   0.0000   0.6163
  -1.000   0.4146   0.04201   0.03096  -0.1461  0.7700  0.1234  -1.3059   0.0000   0.0000   0.0000   0.6045
  -0.900   0.4299   0.04168   0.03053  -0.1468  0.7680  0.1291  -1.2567   0.0000   0.0000   0.0000   0.5933
  -0.800   0.4464   0.04133   0.03004  -0.1476  0.7664  0.1356  -1.2052   0.0000   0.0000   0.0000   0.5823
  -0.700   0.4640   0.04092   0.02940  -0.1485  0.7649  0.1425  -1.1576   0.0000   0.0000   0.0000   0.5714
  -0.600   0.4816   0.04056   0.02890  -0.1495  0.7636  0.1510  -1.1131   0.0000   0.0000   0.0000   0.5613
  -0.500   0.4751   0.04117   0.02951  -0.1473  0.7570  0.1522  -1.1097   0.0000   0.0000   0.0000   0.5609
  -0.400   0.4831   0.04119   0.02952  -0.1470  0.7535  0.1581  -1.0771   0.0000   0.0000   0.0000   0.5550
  -0.300   0.4954   0.04106   0.02931  -0.1472  0.7508  0.1659  -1.0397   0.0000   0.0000   0.0000   0.5476
  -0.200   0.5097   0.04086   0.02904  -0.1477  0.7486  0.1760  -0.9974   0.0000   0.0000   0.0000   0.5400
  -0.100   0.5252   0.04061   0.02874  -0.1483  0.7468  0.1876  -0.9517   0.0000   0.0000   0.0000   0.5324
   0.000   0.5416   0.04035   0.02843  -0.1490  0.7452  0.2019  -0.9033   0.0000   0.0000   0.0000   0.5250
   0.100   0.5587   0.04005   0.02810  -0.1498  0.7438  0.2188  -0.8537   0.0000   0.0000   0.0000   0.5178
   0.200   0.5567   0.04057   0.02865  -0.1483  0.7384  0.2247  -0.8398   0.0000   0.0000   0.0000   0.5159
   0.300   0.5618   0.04078   0.02888  -0.1477  0.7341  0.2364  -0.8212   0.0000   0.0000   0.0000   0.5122
   0.400   0.5732   0.04074   0.02885  -0.1478  0.7313  0.2556  -0.8306   0.0000   0.0000   0.0000   0.5070
   0.500   0.5870   0.04057   0.02875  -0.1482  0.7290  0.2808  -0.8419   0.0000   0.0000   0.0000   0.5015
   0.600   0.6022   0.04032   0.02859  -0.1488  0.7272  0.3139  -0.8545   0.0000   0.0000   0.0000   0.4959
   0.700   0.6182   0.04000   0.02844  -0.1495  0.7256  0.3592  -0.8678   0.0000   0.0000   0.0000   0.4904
   0.800   0.6344   0.03962   0.02829  -0.1501  0.7242  0.4219  -0.8819   0.0000   0.0000   0.0000   0.4850
   1.000   0.6349   0.04033   0.02935  -0.1474  0.7144  0.5032  -0.8845   0.0000   0.0000   0.0000   0.4804
   1.100   0.6418   0.04009   0.02943  -0.1465  0.7116  0.6005  -0.8919   0.0000   0.0000   0.0000   0.4763
   1.200   0.6448   0.03934   0.02914  -0.1445  0.7089  0.9861  -0.8971   0.0000   0.0000   0.0000   0.4719
   1.300   0.6605   0.03938   0.02892  -0.1450  0.7071  1.0000  -0.9109   0.0000   0.0000   0.0000   0.4672
   1.400   0.6771   0.03937   0.02869  -0.1456  0.7055  1.0000  -0.9258   0.0000   0.0000   0.0000   0.4626
   1.500   0.6945   0.03932   0.02844  -0.1464  0.7041  1.0000  -0.9414   0.0000   0.0000   0.0000   0.4581
   1.600   0.6814   0.04053   0.02967  -0.1438  0.6959  1.0000  -0.9311   0.0000   0.0000   0.0000   0.4583
   1.700   0.6911   0.04079   0.02980  -0.1437  0.6927  1.0000  -0.9407   0.0000   0.0000   0.0000   0.4550
   1.800   0.7041   0.04091   0.02978  -0.1439  0.6903  1.0000  -0.9532   0.0000   0.0000   0.0000   0.4513
   1.900   0.7190   0.04093   0.02964  -0.1443  0.6884  1.0000  -0.9675   0.0000   0.0000   0.0000   0.4475
   2.000   0.7348   0.04090   0.02948  -0.1448  0.6868  1.0000  -0.9828   0.0000   0.0000   0.0000   0.4436
   2.100   0.7517   0.04081   0.02926  -0.1454  0.6854  1.0000  -0.9993   0.0000   0.0000   0.0000   0.4398
   2.200   0.7385   0.04213   0.03060  -0.1430  0.6773  1.0000  -0.9889   0.0000   0.0000   0.0000   0.4399
   2.300   0.7476   0.04241   0.03080  -0.1428  0.6740  1.0000  -0.9986   0.0000   0.0000   0.0000   0.4371
   2.400   0.7604   0.04251   0.03080  -0.1429  0.6716  1.0000  -1.0119   0.0000   0.0000   0.0000   0.4340
   2.500   0.7751   0.04250   0.03070  -0.1433  0.6697  1.0000  -1.0269   0.0000   0.0000   0.0000   0.4307
   2.600   0.7910   0.04243   0.03053  -0.1437  0.6681  1.0000  -1.0436   0.0000   0.0000   0.0000   0.4273
   2.700   0.8078   0.04230   0.03031  -0.1442  0.6668  1.0000  -1.0614   0.0000   0.0000   0.0000   0.4240
   2.800   0.7918   0.04387   0.03191  -0.1417  0.6580  1.0000  -1.0479   0.0000   0.0000   0.0000   0.4243
   2.900   0.8019   0.04409   0.03207  -0.1415  0.6550  1.0000  -1.0593   0.0000   0.0000   0.0000   0.4218
   3.000   0.8153   0.04412   0.03203  -0.1417  0.6528  1.0000  -1.0740   0.0000   0.0000   0.0000   0.4189
   3.100   0.8303   0.04407   0.03190  -0.1420  0.6510  1.0000  -1.0908   0.0000   0.0000   0.0000   0.4159
   3.200   0.8465   0.04394   0.03170  -0.1424  0.6495  1.0000  -1.1089   0.0000   0.0000   0.0000   0.4130
   3.400   0.8433   0.04568   0.03342  -0.1401  0.6385  1.0000  -1.1096   0.0000   0.0000   0.0000   0.4107
   3.500   0.8553   0.04577   0.03347  -0.1401  0.6360  1.0000  -1.1237   0.0000   0.0000   0.0000   0.4082
   3.600   0.8696   0.04572   0.03338  -0.1403  0.6340  1.0000  -1.1407   0.0000   0.0000   0.0000   0.4056
   3.700   0.8852   0.04559   0.03318  -0.1406  0.6324  1.0000  -1.1592   0.0000   0.0000   0.0000   0.4029
   3.800   0.9020   0.04538   0.03292  -0.1409  0.6311  1.0000  -1.1789   0.0000   0.0000   0.0000   0.4002
   4.000   0.8948   0.04744   0.03499  -0.1385  0.6191  1.0000  -1.1759   0.0000   0.0000   0.0000   0.3984
   4.100   0.9085   0.04740   0.03490  -0.1386  0.6170  1.0000  -1.1932   0.0000   0.0000   0.0000   0.3960
   4.200   0.9239   0.04725   0.03471  -0.1388  0.6153  1.0000  -1.2124   0.0000   0.0000   0.0000   0.3935
   4.300   0.9404   0.04701   0.03443  -0.1390  0.6139  1.0000  -1.2330   0.0000   0.0000   0.0000   0.3911
   4.500   0.9336   0.04916   0.03659  -0.1367  0.6021  1.0000  -1.2305   0.0000   0.0000   0.0000   0.3894
   4.600   0.9470   0.04910   0.03650  -0.1368  0.5999  1.0000  -1.2481   0.0000   0.0000   0.0000   0.3872
   4.700   0.9623   0.04892   0.03629  -0.1369  0.5982  1.0000  -1.2682   0.0000   0.0000   0.0000   0.3849
   4.800   0.9788   0.04864   0.03598  -0.1371  0.5969  1.0000  -1.2899   0.0000   0.0000   0.0000   0.3826
   5.000   0.9715   0.05092   0.03829  -0.1349  0.5849  1.0000  -1.2871   0.0000   0.0000   0.0000   0.3811
   5.100   0.9850   0.05083   0.03822  -0.1349  0.5828  1.0000  -1.3056   0.0000   0.0000   0.0000   0.3790
   5.200   1.0005   0.05058   0.03796  -0.1350  0.5812  1.0000  -1.3265   0.0000   0.0000   0.0000   0.3768
   5.300   1.0173   0.05025   0.03761  -0.1352  0.5798  1.0000  -1.3496   0.0000   0.0000   0.0000   0.3746
   5.500   1.0084   0.05273   0.04013  -0.1331  0.5677  1.0000  -1.3453   0.0000   0.0000   0.0000   0.3734
   5.600   1.0226   0.05255   0.03994  -0.1330  0.5657  1.0000  -1.3656   0.0000   0.0000   0.0000   0.3714
   5.700   1.0385   0.05223   0.03961  -0.1331  0.5642  1.0000  -1.3881   0.0000   0.0000   0.0000   0.3693
   5.800   1.0558   0.05182   0.03920  -0.1333  0.5629  1.0000  -1.4123   0.0000   0.0000   0.0000   0.3672
   6.000   1.0449   0.05455   0.04197  -0.1311  0.5503  1.0000  -1.4053   0.0000   0.0000   0.0000   0.3662
   6.100   1.0599   0.05426   0.04168  -0.1311  0.5486  1.0000  -1.4278   0.0000   0.0000   0.0000   0.3642
   6.200   1.0766   0.05385   0.04131  -0.1312  0.5472  1.0000  -1.4525   0.0000   0.0000   0.0000   0.3622
   6.400   1.0673   0.05659   0.04410  -0.1293  0.5351  1.0000  -1.4469   0.0000   0.0000   0.0000   0.3612
   6.500   1.0813   0.05635   0.04386  -0.1292  0.5331  1.0000  -1.4685   0.0000   0.0000   0.0000   0.3594
   6.600   1.0974   0.05593   0.04345  -0.1292  0.5316  1.0000  -1.4928   0.0000   0.0000   0.0000   0.3574
   6.700   1.1150   0.05540   0.04293  -0.1292  0.5304  1.0000  -1.5194   0.0000   0.0000   0.0000   0.3554
   6.800   1.0894   0.05867   0.04625  -0.1275  0.5199  1.0000  -1.4884   0.0000   0.0000   0.0000   0.3565
   6.900   1.1025   0.05850   0.04608  -0.1273  0.5178  1.0000  -1.5098   0.0000   0.0000   0.0000   0.3548
   7.000   1.1180   0.05808   0.04569  -0.1272  0.5161  1.0000  -1.5346   0.0000   0.0000   0.0000   0.3529
   7.100   1.1352   0.05753   0.04515  -0.1272  0.5148  1.0000  -1.5619   0.0000   0.0000   0.0000   0.3510
   7.300   1.1232   0.06072   0.04840  -0.1255  0.5024  1.0000  -1.5519   0.0000   0.0000   0.0000   0.3504
   7.400   1.1382   0.06032   0.04802  -0.1254  0.5007  1.0000  -1.5764   0.0000   0.0000   0.0000   0.3486
   7.500   1.1551   0.05974   0.04746  -0.1253  0.4994  1.0000  -1.6036   0.0000   0.0000   0.0000   0.3467
   7.700   1.1432   0.06305   0.05084  -0.1238  0.4871  1.0000  -1.5930   0.0000   0.0000   0.0000   0.3463
   7.800   1.1580   0.06264   0.05050  -0.1236  0.4854  1.0000  -1.6184   0.0000   0.0000   0.0000   0.3445
   7.900   1.1746   0.06204   0.04994  -0.1234  0.4840  1.0000  -1.6467   0.0000   0.0000   0.0000   0.3427
   8.100   1.1622   0.06555   0.05351  -0.1221  0.4719  1.0000  -1.6349   0.0000   0.0000   0.0000   0.3424
   8.200   1.1769   0.06510   0.05309  -0.1218  0.4702  1.0000  -1.6607   0.0000   0.0000   0.0000   0.3407
   8.300   1.1935   0.06445   0.05248  -0.1216  0.4688  1.0000  -1.6894   0.0000   0.0000   0.0000   0.3388
   8.600   1.1948   0.06774   0.05588  -0.1202  0.4551  1.0000  -1.7008   0.0000   0.0000   0.0000   0.3371
   8.700   1.2115   0.06703   0.05521  -0.1199  0.4537  1.0000  -1.7308   0.0000   0.0000   0.0000   0.3353
   8.900   1.1969   0.07110   0.05935  -0.1191  0.4417  1.0000  -1.7141   0.0000   0.0000   0.0000   0.3355
   9.000   1.2116   0.07057   0.05886  -0.1187  0.4401  1.0000  -1.7416   0.0000   0.0000   0.0000   0.3338
   9.100   1.2282   0.06982   0.05820  -0.1183  0.4388  1.0000  -1.7725   0.0000   0.0000   0.0000   0.3319
   9.300   1.2123   0.07422   0.06267  -0.1177  0.4268  1.0000  -1.7519   0.0000   0.0000   0.0000   0.3324
   9.400   1.2271   0.07363   0.06214  -0.1173  0.4252  1.0000  -1.7801   0.0000   0.0000   0.0000   0.3307
   9.500   1.2438   0.07282   0.06138  -0.1168  0.4240  1.0000  -1.8115   0.0000   0.0000   0.0000   0.3289
   9.700   1.2260   0.07764   0.06627  -0.1165  0.4120  1.0000  -1.7872   0.0000   0.0000   0.0000   0.3297
   9.800   1.2410   0.07698   0.06567  -0.1160  0.4106  1.0000  -1.8172   0.0000   0.0000   0.0000   0.3279
   9.900   1.2578   0.07611   0.06485  -0.1155  0.4094  1.0000  -1.8505   0.0000   0.0000   0.0000   0.3261
  10.000   1.2253   0.08181   0.07056  -0.1160  0.3992  1.0000  -1.7944   0.0000   0.0000   0.0000   0.3288
  10.100   1.2380   0.08141   0.07022  -0.1155  0.3975  1.0000  -1.8207   0.0000   0.0000   0.0000   0.3272
  10.200   1.2530   0.08069   0.06957  -0.1150  0.3961  1.0000  -1.8514   0.0000   0.0000   0.0000   0.3255
  10.400   1.2354   0.08598   0.07492  -0.1152  0.3847  1.0000  -1.8240   0.0000   0.0000   0.0000   0.3267
  10.500   1.2481   0.08555   0.07455  -0.1147  0.3831  1.0000  -1.8519   0.0000   0.0000   0.0000   0.3252
  10.600   1.2629   0.08483   0.07390  -0.1141  0.3818  1.0000  -1.8839   0.0000   0.0000   0.0000   0.3234
  10.800   1.2432   0.09063   0.07976  -0.1148  0.3705  1.0000  -1.8501   0.0000   0.0000   0.0000   0.3251
  10.900   1.2560   0.09013   0.07938  -0.1142  0.3690  1.0000  -1.8800   0.0000   0.0000   0.0000   0.3235
  11.000   1.2708   0.08936   0.07867  -0.1136  0.3678  1.0000  -1.9139   0.0000   0.0000   0.0000   0.3217
  11.200   1.2487   0.09576   0.08514  -0.1147  0.3566  1.0000  -1.8735   0.0000   0.0000   0.0000   0.3239
  11.300   1.2612   0.09530   0.08474  -0.1141  0.3551  1.0000  -1.9043   0.0000   0.0000   0.0000   0.3223
  11.400   1.2757   0.09452   0.08404  -0.1134  0.3540  1.0000  -1.9532   0.0000   0.0000   0.0000   0.3205
  11.600   1.2524   0.10127   0.09084  -0.1149  0.3429  1.0000  -1.8955   0.0000   0.0000   0.0000   0.3231
  11.700   1.2646   0.10085   0.09049  -0.1143  0.3415  1.0000  -1.9962   0.0000   0.0000   0.0000   0.3215
  11.800   1.2783   0.10019   0.08991  -0.1136  0.3404  1.0000  -2.1221   0.0000   0.0000   0.0000   0.3198
  11.900   1.2435   0.10740   0.09709  -0.1160  0.3315  1.0000  -1.9365   0.0000   0.0000   0.0000   0.3242
  12.000   1.2529   0.10745   0.09721  -0.1156  0.3296  1.0000  -2.0323   0.0000   0.0000   0.0000   0.3230
  12.100   1.2650   0.10702   0.09686  -0.1150  0.3282  1.0000  -2.1501   0.0000   0.0000   0.0000   0.3214
  12.200   1.2774   0.10654   0.09645  -0.1143  0.3269  1.0000  -2.2712   0.0000   0.0000   0.0000   0.3197
  12.500   1.2628   0.11372   0.10375  -0.1161  0.3152  1.0000  -2.2832   0.0000   0.0000   0.0000   0.3218
  12.600   1.2757   0.11316   0.10327  -0.1154  0.3141  1.0000  -2.4111   0.0000   0.0000   0.0000   0.3201
  12.700   1.2438   0.12003   0.11009  -0.1183  0.3066  1.0000  -2.2211   0.0000   0.0000   0.0000   0.3247
  12.800   1.2496   0.12066   0.11079  -0.1181  0.3043  1.0000  -2.2977   0.0000   0.0000   0.0000   0.3240
  12.900   1.2593   0.12063   0.11084  -0.1177  0.3026  1.0000  -2.4039   0.0000   0.0000   0.0000   0.3226
  13.000   1.2713   0.12023   0.11056  -0.1171  0.3014  1.0000  -2.5287   0.0000   0.0000   0.0000   0.3210
  13.100   1.2453   0.12619   0.11643  -0.1197  0.2953  1.0000  -2.3696   0.0000   0.0000   0.0000   0.3251
  13.200   1.2470   0.12752   0.11782  -0.1200  0.2926  1.0000  -2.4158   0.0000   0.0000   0.0000   0.3250
  13.300   1.2541   0.12792   0.11833  -0.1198  0.2906  1.0000  -2.5047   0.0000   0.0000   0.0000   0.3241
  13.400   1.2646   0.12776   0.11826  -0.1192  0.2891  1.0000  -2.6205   0.0000   0.0000   0.0000   0.3226
  15.000   1.2584   0.15407   0.14528  -0.1286  0.2465  1.0000  -3.0852   0.0000   0.0000   0.0000   0.3278


