xflr5 v6.59

 Calculated polar for: SF-15

 1 1 Reynolds number fixed          Mach number fixed         

 xtrf =   1.000 (top)        1.000 (bottom)
 Mach =   0.050     Re =     0.080 e 6     Ncrit =   5.000

  alpha     CL        CD       CDp       Cm    Top Xtr Bot Xtr   Cpmin    Chinge    XCp    
 ------- -------- --------- --------- -------- ------- ------- -------- --------- ---------
  -3.000   0.4101   0.02762   0.01921  -0.1682  0.7908  0.0579  -1.8544   0.0000   0.0000   0.0000   0.6656
  -2.900   0.4248   0.02717   0.01865  -0.1690  0.7890  0.0602  -1.7986   0.0000   0.0000   0.0000   0.6528
  -2.800   0.4421   0.02632   0.01744  -0.1702  0.7876  0.0634  -1.7771   0.0000   0.0000   0.0000   0.6396
  -2.700   0.4569   0.02591   0.01704  -0.1709  0.7862  0.0653  -1.7123   0.0000   0.0000   0.0000   0.6284
  -2.600   0.4728   0.02537   0.01639  -0.1718  0.7850  0.0673  -1.6618   0.0000   0.0000   0.0000   0.6173
  -2.500   0.4826   0.02503   0.01591  -0.1716  0.7818  0.0689  -1.6312   0.0000   0.0000   0.0000   0.6093
  -2.400   0.4893   0.02480   0.01552  -0.1709  0.7773  0.0709  -1.6108   0.0000   0.0000   0.0000   0.6027
  -2.300   0.4992   0.02464   0.01541  -0.1708  0.7742  0.0731  -1.5540   0.0000   0.0000   0.0000   0.5953
  -2.200   0.5117   0.02437   0.01506  -0.1710  0.7717  0.0765  -1.5020   0.0000   0.0000   0.0000   0.5872
  -2.100   0.5253   0.02400   0.01459  -0.1714  0.7697  0.0797  -1.4529   0.0000   0.0000   0.0000   0.5790
  -2.000   0.5391   0.02368   0.01424  -0.1718  0.7679  0.0825  -1.3958   0.0000   0.0000   0.0000   0.5712
  -1.900   0.5540   0.02330   0.01372  -0.1723  0.7662  0.0866  -1.3455   0.0000   0.0000   0.0000   0.5633
  -1.800   0.5688   0.02302   0.01344  -0.1729  0.7647  0.0908  -1.2796   0.0000   0.0000   0.0000   0.5561
  -1.700   0.5841   0.02269   0.01301  -0.1735  0.7634  0.0960  -1.2220   0.0000   0.0000   0.0000   0.5489
  -1.600   0.5866   0.02281   0.01317  -0.1722  0.7581  0.0982  -1.1914   0.0000   0.0000   0.0000   0.5452
  -1.500   0.5956   0.02270   0.01303  -0.1718  0.7546  0.1023  -1.1551   0.0000   0.0000   0.0000   0.5399
  -1.400   0.6069   0.02254   0.01287  -0.1718  0.7519  0.1073  -1.1096   0.0000   0.0000   0.0000   0.5344
  -1.300   0.6195   0.02235   0.01263  -0.1720  0.7496  0.1136  -1.0638   0.0000   0.0000   0.0000   0.5287
  -1.200   0.6330   0.02213   0.01239  -0.1723  0.7476  0.1200  -1.0140   0.0000   0.0000   0.0000   0.5231
  -1.100   0.6472   0.02190   0.01215  -0.1728  0.7458  0.1276  -0.9622   0.0000   0.0000   0.0000   0.5176
  -1.000   0.6620   0.02166   0.01189  -0.1733  0.7442  0.1365  -0.9098   0.0000   0.0000   0.0000   0.5123
  -0.900   0.6740   0.02153   0.01175  -0.1734  0.7418  0.1454  -0.9063   0.0000   0.0000   0.0000   0.5077
  -0.800   0.6789   0.02164   0.01187  -0.1724  0.7372  0.1527  -0.9112   0.0000   0.0000   0.0000   0.5042
  -0.700   0.6886   0.02159   0.01183  -0.1722  0.7339  0.1627  -0.9194   0.0000   0.0000   0.0000   0.5001
  -0.600   0.7004   0.02148   0.01173  -0.1723  0.7312  0.1751  -0.9291   0.0000   0.0000   0.0000   0.4958
  -0.500   0.7135   0.02133   0.01157  -0.1726  0.7289  0.1903  -0.9400   0.0000   0.0000   0.0000   0.4915
  -0.400   0.7275   0.02115   0.01141  -0.1730  0.7268  0.2089  -0.9517   0.0000   0.0000   0.0000   0.4873
  -0.300   0.7421   0.02096   0.01124  -0.1735  0.7250  0.2317  -0.9638   0.0000   0.0000   0.0000   0.4832
  -0.200   0.7572   0.02076   0.01108  -0.1742  0.7234  0.2593  -0.9764   0.0000   0.0000   0.0000   0.4792
  -0.100   0.7626   0.02088   0.01126  -0.1733  0.7190  0.2807  -0.9824   0.0000   0.0000   0.0000   0.4763
   0.000   0.7711   0.02089   0.01135  -0.1729  0.7154  0.3088  -0.9906   0.0000   0.0000   0.0000   0.4731
   0.100   0.7820   0.02081   0.01136  -0.1728  0.7124  0.3446  -1.0006   0.0000   0.0000   0.0000   0.4698
   0.200   0.7941   0.02068   0.01132  -0.1730  0.7099  0.3879  -1.0118   0.0000   0.0000   0.0000   0.4664
   0.300   0.8071   0.02050   0.01126  -0.1732  0.7077  0.4392  -1.0239   0.0000   0.0000   0.0000   0.4630
   0.400   0.8204   0.02030   0.01118  -0.1734  0.7058  0.4986  -1.0363   0.0000   0.0000   0.0000   0.4596
   0.500   0.8334   0.02006   0.01107  -0.1735  0.7041  0.5667  -1.0487   0.0000   0.0000   0.0000   0.4563
   0.600   0.8372   0.02013   0.01129  -0.1722  0.6998  0.6205  -1.0545   0.0000   0.0000   0.0000   0.4536
   0.700   0.8425   0.02004   0.01138  -0.1709  0.6961  0.6918  -1.0615   0.0000   0.0000   0.0000   0.4507
   0.800   0.8478   0.01963   0.01125  -0.1694  0.6930  1.0000  -1.0690   0.0000   0.0000   0.0000   0.4475
   0.900   0.8603   0.01966   0.01117  -0.1696  0.6904  1.0000  -1.0811   0.0000   0.0000   0.0000   0.4446
   1.000   0.8739   0.01965   0.01105  -0.1699  0.6882  1.0000  -1.0946   0.0000   0.0000   0.0000   0.4418
   1.100   0.8882   0.01962   0.01091  -0.1703  0.6862  1.0000  -1.1086   0.0000   0.0000   0.0000   0.4390
   1.200   0.8992   0.01970   0.01091  -0.1703  0.6834  1.0000  -1.1201   0.0000   0.0000   0.0000   0.4364
   1.300   0.9053   0.01992   0.01110  -0.1694  0.6791  1.0000  -1.1280   0.0000   0.0000   0.0000   0.4341
   1.400   0.9147   0.02004   0.01116  -0.1691  0.6757  1.0000  -1.1388   0.0000   0.0000   0.0000   0.4317
   1.500   0.9261   0.02009   0.01114  -0.1691  0.6728  1.0000  -1.1511   0.0000   0.0000   0.0000   0.4293
   1.600   0.9390   0.02010   0.01107  -0.1693  0.6704  1.0000  -1.1647   0.0000   0.0000   0.0000   0.4268
   1.700   0.9528   0.02008   0.01097  -0.1697  0.6682  1.0000  -1.1796   0.0000   0.0000   0.0000   0.4244
   1.800   0.9659   0.02009   0.01090  -0.1699  0.6659  1.0000  -1.1940   0.0000   0.0000   0.0000   0.4221
   1.900   0.9709   0.02034   0.01115  -0.1689  0.6615  1.0000  -1.2017   0.0000   0.0000   0.0000   0.4201
   2.000   0.9796   0.02048   0.01126  -0.1685  0.6579  1.0000  -1.2125   0.0000   0.0000   0.0000   0.4180
   2.100   0.9906   0.02054   0.01128  -0.1684  0.6548  1.0000  -1.2257   0.0000   0.0000   0.0000   0.4158
   2.200   1.0031   0.02056   0.01123  -0.1686  0.6522  1.0000  -1.2403   0.0000   0.0000   0.0000   0.4137
   2.300   1.0166   0.02055   0.01115  -0.1689  0.6499  1.0000  -1.2558   0.0000   0.0000   0.0000   0.4116
   2.400   1.0284   0.02060   0.01114  -0.1689  0.6473  1.0000  -1.2700   0.0000   0.0000   0.0000   0.4096
   2.500   1.0338   0.02084   0.01139  -0.1680  0.6430  1.0000  -1.2789   0.0000   0.0000   0.0000   0.4077
   2.600   1.0426   0.02097   0.01150  -0.1676  0.6394  1.0000  -1.2910   0.0000   0.0000   0.0000   0.4058
   2.700   1.0536   0.02104   0.01151  -0.1675  0.6364  1.0000  -1.3051   0.0000   0.0000   0.0000   0.4039
   2.800   1.0662   0.02105   0.01148  -0.1677  0.6338  1.0000  -1.3205   0.0000   0.0000   0.0000   0.4021
   2.900   1.0799   0.02104   0.01140  -0.1680  0.6315  1.0000  -1.3376   0.0000   0.0000   0.0000   0.4002
   3.000   1.0877   0.02121   0.01156  -0.1674  0.6278  1.0000  -1.3494   0.0000   0.0000   0.0000   0.3984
   3.100   1.0944   0.02141   0.01176  -0.1667  0.6238  1.0000  -1.3603   0.0000   0.0000   0.0000   0.3967
   3.200   1.1040   0.02152   0.01184  -0.1664  0.6204  1.0000  -1.3738   0.0000   0.0000   0.0000   0.3950
   3.300   1.1156   0.02156   0.01184  -0.1664  0.6175  1.0000  -1.3894   0.0000   0.0000   0.0000   0.3933
   3.400   1.1286   0.02156   0.01183  -0.1666  0.6149  1.0000  -1.4068   0.0000   0.0000   0.0000   0.3916
   3.500   1.1401   0.02162   0.01185  -0.1666  0.6121  1.0000  -1.4228   0.0000   0.0000   0.0000   0.3899
   3.600   1.1452   0.02187   0.01213  -0.1657  0.6078  1.0000  -1.4327   0.0000   0.0000   0.0000   0.3883
   3.700   1.1536   0.02201   0.01226  -0.1652  0.6042  1.0000  -1.4460   0.0000   0.0000   0.0000   0.3867
   3.800   1.1645   0.02208   0.01230  -0.1651  0.6010  1.0000  -1.4618   0.0000   0.0000   0.0000   0.3851
   3.900   1.1769   0.02210   0.01228  -0.1652  0.5982  1.0000  -1.4796   0.0000   0.0000   0.0000   0.3836
   4.000   1.1898   0.02212   0.01225  -0.1654  0.5957  1.0000  -1.4978   0.0000   0.0000   0.0000   0.3821
   4.100   1.1940   0.02239   0.01256  -0.1643  0.5912  1.0000  -1.5076   0.0000   0.0000   0.0000   0.3805
   4.200   1.2019   0.02255   0.01272  -0.1638  0.5874  1.0000  -1.5211   0.0000   0.0000   0.0000   0.3790
   4.300   1.2123   0.02263   0.01278  -0.1636  0.5841  1.0000  -1.5371   0.0000   0.0000   0.0000   0.3776
   4.400   1.2246   0.02266   0.01277  -0.1637  0.5813  1.0000  -1.5556   0.0000   0.0000   0.0000   0.3761
   4.500   1.2361   0.02271   0.01283  -0.1637  0.5784  1.0000  -1.5736   0.0000   0.0000   0.0000   0.3747
   4.600   1.2405   0.02298   0.01314  -0.1626  0.5740  1.0000  -1.5842   0.0000   0.0000   0.0000   0.3733
   4.700   1.2485   0.02313   0.01330  -0.1621  0.5702  1.0000  -1.5985   0.0000   0.0000   0.0000   0.3719
   4.800   1.2590   0.02321   0.01336  -0.1619  0.5668  1.0000  -1.6155   0.0000   0.0000   0.0000   0.3705
   4.900   1.2713   0.02324   0.01335  -0.1620  0.5640  1.0000  -1.6344   0.0000   0.0000   0.0000   0.3692
   5.000   1.2795   0.02339   0.01351  -0.1615  0.5604  1.0000  -1.6496   0.0000   0.0000   0.0000   0.3678
   5.100   1.2849   0.02363   0.01378  -0.1606  0.5561  1.0000  -1.6619   0.0000   0.0000   0.0000   0.3664
   5.200   1.2934   0.02376   0.01391  -0.1602  0.5524  1.0000  -1.6778   0.0000   0.0000   0.0000   0.3651
   5.300   1.3044   0.02383   0.01396  -0.1601  0.5492  1.0000  -1.6963   0.0000   0.0000   0.0000   0.3638
   5.400   1.3173   0.02384   0.01393  -0.1603  0.5464  1.0000  -1.7169   0.0000   0.0000   0.0000   0.3626
   5.500   1.3206   0.02413   0.01428  -0.1590  0.5419  1.0000  -1.7272   0.0000   0.0000   0.0000   0.3612
   5.600   1.3274   0.02432   0.01449  -0.1583  0.5379  1.0000  -1.7412   0.0000   0.0000   0.0000   0.3599
   5.700   1.3369   0.02442   0.01462  -0.1580  0.5343  1.0000  -1.7584   0.0000   0.0000   0.0000   0.3587
   5.800   1.3488   0.02446   0.01463  -0.1581  0.5312  1.0000  -1.7791   0.0000   0.0000   0.0000   0.3575
   5.900   1.3550   0.02467   0.01487  -0.1573  0.5273  1.0000  -1.7932   0.0000   0.0000   0.0000   0.3562
   6.000   1.3603   0.02491   0.01514  -0.1563  0.5230  1.0000  -1.8064   0.0000   0.0000   0.0000   0.3549
   6.100   1.3686   0.02504   0.01528  -0.1558  0.5192  1.0000  -1.8231   0.0000   0.0000   0.0000   0.3537
   6.200   1.3795   0.02511   0.01532  -0.1557  0.5159  1.0000  -1.8428   0.0000   0.0000   0.0000   0.3526
   6.300   1.3872   0.02527   0.01550  -0.1552  0.5122  1.0000  -1.8588   0.0000   0.0000   0.0000   0.3514
   6.400   1.3913   0.02554   0.01581  -0.1541  0.5079  1.0000  -1.8707   0.0000   0.0000   0.0000   0.3501
   6.500   1.3988   0.02570   0.01599  -0.1535  0.5040  1.0000  -1.8866   0.0000   0.0000   0.0000   0.3489
   6.600   1.4091   0.02578   0.01606  -0.1533  0.5005  1.0000  -1.9062   0.0000   0.0000   0.0000   0.3478
   6.700   1.4169   0.02595   0.01623  -0.1527  0.4968  1.0000  -1.9233   0.0000   0.0000   0.0000   0.3467
   6.800   1.4202   0.02623   0.01656  -0.1515  0.4924  1.0000  -1.9351   0.0000   0.0000   0.0000   0.3454
   6.900   1.4270   0.02641   0.01679  -0.1508  0.4884  1.0000  -1.9512   0.0000   0.0000   0.0000   0.3442
   7.000   1.4370   0.02650   0.01687  -0.1505  0.4849  1.0000  -1.9710   0.0000   0.0000   0.0000   0.3432
   7.100   1.4437   0.02669   0.01708  -0.1498  0.4811  1.0000  -1.9870   0.0000   0.0000   0.0000   0.3420
   7.200   1.4465   0.02698   0.01742  -0.1485  0.4768  1.0000  -1.9983   0.0000   0.0000   0.0000   0.3408
   7.300   1.4526   0.02717   0.01763  -0.1477  0.4728  1.0000  -2.0137   0.0000   0.0000   0.0000   0.3396
   7.400   1.4624   0.02726   0.01771  -0.1474  0.4693  1.0000  -2.0334   0.0000   0.0000   0.0000   0.3386
   7.500   1.4665   0.02751   0.01798  -0.1463  0.4654  1.0000  -2.0465   0.0000   0.0000   0.0000   0.3374
   7.600   1.4687   0.02780   0.01832  -0.1449  0.4611  1.0000  -2.0571   0.0000   0.0000   0.0000   0.3361
   7.700   1.4747   0.02799   0.01853  -0.1441  0.4572  1.0000  -2.0732   0.0000   0.0000   0.0000   0.3350
   7.800   1.4846   0.02809   0.01861  -0.1439  0.4537  1.0000  -2.0942   0.0000   0.0000   0.0000   0.3340
   7.900   1.4864   0.02842   0.01898  -0.1424  0.4496  1.0000  -2.1051   0.0000   0.0000   0.0000   0.3327
   8.000   1.4892   0.02872   0.01933  -0.1412  0.4454  1.0000  -2.1172   0.0000   0.0000   0.0000   0.3316
   8.100   1.4956   0.02891   0.01956  -0.1405  0.4416  1.0000  -2.1340   0.0000   0.0000   0.0000   0.3305
   8.200   1.5053   0.02902   0.01965  -0.1402  0.4381  1.0000  -2.1549   0.0000   0.0000   0.0000   0.3295
   8.300   1.5048   0.02944   0.02014  -0.1385  0.4338  1.0000  -2.1628   0.0000   0.0000   0.0000   0.3283
   8.400   1.5082   0.02974   0.02048  -0.1374  0.4297  1.0000  -2.1757   0.0000   0.0000   0.0000   0.3272
   8.500   1.5153   0.02993   0.02067  -0.1368  0.4259  1.0000  -2.1934   0.0000   0.0000   0.0000   0.3261
   8.600   1.5215   0.03016   0.02091  -0.1361  0.4222  1.0000  -2.2104   0.0000   0.0000   0.0000   0.3251
   8.700   1.5223   0.03057   0.02139  -0.1346  0.4180  1.0000  -2.2316   0.0000   0.0000   0.0000   0.3240
   8.800   1.5264   0.03087   0.02171  -0.1337  0.4140  1.0000  -2.3058   0.0000   0.0000   0.0000   0.3229
   8.900   1.5344   0.03104   0.02188  -0.1332  0.4104  1.0000  -2.4002   0.0000   0.0000   0.0000   0.3220
   9.000   1.5368   0.03143   0.02231  -0.1320  0.4064  1.0000  -2.4667   0.0000   0.0000   0.0000   0.3209
   9.100   1.5388   0.03184   0.02277  -0.1308  0.4023  1.0000  -2.5311   0.0000   0.0000   0.0000   0.3199
   9.200   1.5440   0.03212   0.02307  -0.1301  0.3985  1.0000  -2.6135   0.0000   0.0000   0.0000   0.3189
   9.300   1.5525   0.03229   0.02322  -0.1297  0.3951  1.0000  -2.7143   0.0000   0.0000   0.0000   0.3180
   9.400   1.5519   0.03283   0.02384  -0.1282  0.3909  1.0000  -2.7661   0.0000   0.0000   0.0000   0.3169
   9.500   1.5546   0.03323   0.02431  -0.1272  0.3868  1.0000  -2.8380   0.0000   0.0000   0.0000   0.3159
   9.600   1.5607   0.03350   0.02459  -0.1265  0.3832  1.0000  -2.9283   0.0000   0.0000   0.0000   0.3150
   9.700   1.5657   0.03383   0.02494  -0.1258  0.3796  1.0000  -3.0124   0.0000   0.0000   0.0000   0.3141
   9.800   1.5664   0.03436   0.02554  -0.1246  0.3756  1.0000  -3.0727   0.0000   0.0000   0.0000   0.3131
   9.900   1.5700   0.03476   0.02598  -0.1237  0.3718  1.0000  -3.1501   0.0000   0.0000   0.0000   0.3122
  10.000   1.5770   0.03501   0.02623  -0.1232  0.3684  1.0000  -3.2472   0.0000   0.0000   0.0000   0.3113
  10.100   1.5790   0.03551   0.02678  -0.1222  0.3646  1.0000  -3.3163   0.0000   0.0000   0.0000   0.3104
  10.200   1.5804   0.03605   0.02738  -0.1211  0.3607  1.0000  -3.3818   0.0000   0.0000   0.0000   0.3094
  10.300   1.5846   0.03644   0.02780  -0.1203  0.3571  1.0000  -3.4644   0.0000   0.0000   0.0000   0.3086
  10.400   1.5925   0.03667   0.02801  -0.1199  0.3539  1.0000  -3.5687   0.0000   0.0000   0.0000   0.3077
  10.500   1.5919   0.03734   0.02877  -0.1187  0.3501  1.0000  -3.6235   0.0000   0.0000   0.0000   0.3068
  10.600   1.5938   0.03789   0.02938  -0.1178  0.3464  1.0000  -3.6934   0.0000   0.0000   0.0000   0.3060
  10.700   1.5985   0.03829   0.02980  -0.1171  0.3430  1.0000  -3.7802   0.0000   0.0000   0.0000   0.3051
  10.800   1.6030   0.03868   0.03018  -0.1164  0.3392  1.0000  -3.8670   0.0000   0.0000   0.0000   0.3043
  10.900   1.6011   0.03944   0.03103  -0.1152  0.3349  1.0000  -3.9152   0.0000   0.0000   0.0000   0.3034
  11.000   1.6022   0.04000   0.03164  -0.1142  0.3305  1.0000  -3.9812   0.0000   0.0000   0.0000   0.3026
  11.100   1.6046   0.04047   0.03209  -0.1134  0.3259  1.0000  -4.0571   0.0000   0.0000   0.0000   0.3017
  11.200   1.6017   0.04133   0.03302  -0.1122  0.3213  1.0000  -4.0993   0.0000   0.0000   0.0000   0.3009
  11.300   1.6019   0.04196   0.03366  -0.1112  0.3165  1.0000  -4.1619   0.0000   0.0000   0.0000   0.3001
  11.400   1.6018   0.04263   0.03434  -0.1102  0.3117  1.0000  -4.2228   0.0000   0.0000   0.0000   0.2993
  11.500   1.5992   0.04353   0.03530  -0.1092  0.3069  1.0000  -4.2669   0.0000   0.0000   0.0000   0.2985
  11.600   1.5996   0.04417   0.03591  -0.1083  0.3020  1.0000  -4.3316   0.0000   0.0000   0.0000   0.2977
  11.700   1.5972   0.04509   0.03689  -0.1073  0.2973  1.0000  -4.3773   0.0000   0.0000   0.0000   0.2970
  11.800   1.5951   0.04601   0.03784  -0.1064  0.2924  1.0000  -4.4248   0.0000   0.0000   0.0000   0.2964
  11.900   1.5955   0.04670   0.03850  -0.1056  0.2876  1.0000  -4.4891   0.0000   0.0000   0.0000   0.2956
  12.000   1.5920   0.04782   0.03970  -0.1048  0.2829  1.0000  -4.5265   0.0000   0.0000   0.0000   0.2950
  12.100   1.5906   0.04874   0.04064  -0.1040  0.2781  1.0000  -4.5784   0.0000   0.0000   0.0000   0.2944
  12.200   1.5896   0.04965   0.04155  -0.1033  0.2736  1.0000  -4.6324   0.0000   0.0000   0.0000   0.2938
  12.300   1.5869   0.05077   0.04275  -0.1026  0.2690  1.0000  -4.6746   0.0000   0.0000   0.0000   0.2932
  12.400   1.5861   0.05171   0.04369  -0.1020  0.2646  1.0000  -4.7291   0.0000   0.0000   0.0000   0.2927
  12.500   1.5845   0.05277   0.04479  -0.1014  0.2603  1.0000  -4.7783   0.0000   0.0000   0.0000   0.2921
  12.600   1.5821   0.05395   0.04602  -0.1008  0.2558  1.0000  -4.8212   0.0000   0.0000   0.0000   0.2917
  12.700   1.5809   0.05497   0.04704  -0.1003  0.2514  1.0000  -4.8729   0.0000   0.0000   0.0000   0.2911
  12.800   1.5782   0.05624   0.04837  -0.0998  0.2469  1.0000  -4.9132   0.0000   0.0000   0.0000   0.2907
  12.900   1.5756   0.05750   0.04968  -0.0994  0.2423  1.0000  -4.9542   0.0000   0.0000   0.0000   0.2903
  13.000   1.5740   0.05864   0.05079  -0.0989  0.2379  1.0000  -5.0026   0.0000   0.0000   0.0000   0.2899
  13.100   1.5708   0.06007   0.05231  -0.0986  0.2334  1.0000  -5.0376   0.0000   0.0000   0.0000   0.2896
  13.200   1.5684   0.06138   0.05368  -0.0983  0.2290  1.0000  -5.0789   0.0000   0.0000   0.0000   0.2893
  13.300   1.5664   0.06268   0.05499  -0.0980  0.2248  1.0000  -5.1220   0.0000   0.0000   0.0000   0.2889
  13.400   1.5632   0.06419   0.05657  -0.0978  0.2203  1.0000  -5.1559   0.0000   0.0000   0.0000   0.2887
  13.500   1.5603   0.06563   0.05802  -0.0975  0.2157  1.0000  -5.1927   0.0000   0.0000   0.0000   0.2884
  13.600   1.5566   0.06725   0.05969  -0.0974  0.2109  1.0000  -5.2225   0.0000   0.0000   0.0000   0.2883
  13.700   1.5528   0.06891   0.06138  -0.0973  0.2060  1.0000  -5.2512   0.0000   0.0000   0.0000   0.2882
  13.800   1.5491   0.07055   0.06304  -0.0973  0.2012  1.0000  -5.2810   0.0000   0.0000   0.0000   0.2880
  13.900   1.5452   0.07232   0.06486  -0.0973  0.1962  1.0000  -5.3069   0.0000   0.0000   0.0000   0.2880
  14.000   1.5416   0.07401   0.06654  -0.0973  0.1915  1.0000  -5.3355   0.0000   0.0000   0.0000   0.2879
  14.100   1.5375   0.07588   0.06849  -0.0975  0.1862  1.0000  -5.3586   0.0000   0.0000   0.0000   0.2880
  14.200   1.5332   0.07774   0.07033  -0.0976  0.1810  1.0000  -5.3814   0.0000   0.0000   0.0000   0.2880
  14.300   1.5291   0.07968   0.07234  -0.0979  0.1754  1.0000  -5.4021   0.0000   0.0000   0.0000   0.2881
  14.400   1.5245   0.08165   0.07430  -0.0981  0.1700  1.0000  -5.4212   0.0000   0.0000   0.0000   0.2883
  14.500   1.5203   0.08366   0.07636  -0.0984  0.1639  1.0000  -5.4397   0.0000   0.0000   0.0000   0.2884
  14.600   1.5154   0.08576   0.07846  -0.0988  0.1581  1.0000  -5.4542   0.0000   0.0000   0.0000   0.2887
  14.700   1.5104   0.08792   0.08064  -0.0993  0.1512  1.0000  -5.4670   0.0000   0.0000   0.0000   0.2890
  14.800   1.5053   0.09014   0.08286  -0.0998  0.1441  1.0000  -5.4776   0.0000   0.0000   0.0000   0.2893
  14.900   1.4998   0.09242   0.08513  -0.1003  0.1370  1.0000  -5.4854   0.0000   0.0000   0.0000   0.2897
  15.000   1.4942   0.09475   0.08745  -0.1010  0.1292  1.0000  -5.4912   0.0000   0.0000   0.0000   0.2902


