xflr5 v6.59

 Calculated polar for: SF-14

 1 1 Reynolds number fixed          Mach number fixed         

 xtrf =   1.000 (top)        1.000 (bottom)
 Mach =   0.050     Re =     0.130 e 6     Ncrit =   5.000

  alpha     CL        CD       CDp       Cm    Top Xtr Bot Xtr   Cpmin    Chinge    XCp    
 ------- -------- --------- --------- -------- ------- ------- -------- --------- ---------
  -3.000   0.4127   0.01837   0.00968  -0.1638  0.7507  0.0503  -1.9085   0.0000   0.0000   0.0000   0.6517
  -2.900   0.4240   0.01822   0.00952  -0.1639  0.7482  0.0521  -1.8398   0.0000   0.0000   0.0000   0.6409
  -2.800   0.4360   0.01800   0.00920  -0.1640  0.7459  0.0544  -1.7811   0.0000   0.0000   0.0000   0.6304
  -2.700   0.4484   0.01769   0.00875  -0.1642  0.7438  0.0566  -1.7310   0.0000   0.0000   0.0000   0.6200
  -2.600   0.4586   0.01751   0.00858  -0.1641  0.7409  0.0580  -1.6720   0.0000   0.0000   0.0000   0.6114
  -2.500   0.4680   0.01736   0.00840  -0.1638  0.7376  0.0596  -1.6191   0.0000   0.0000   0.0000   0.6034
  -2.400   0.4782   0.01719   0.00817  -0.1636  0.7344  0.0619  -1.5669   0.0000   0.0000   0.0000   0.5953
  -2.300   0.4889   0.01703   0.00797  -0.1635  0.7315  0.0646  -1.5100   0.0000   0.0000   0.0000   0.5874
  -2.200   0.5000   0.01691   0.00783  -0.1635  0.7288  0.0674  -1.4474   0.0000   0.0000   0.0000   0.5798
  -2.100   0.5118   0.01673   0.00756  -0.1636  0.7264  0.0706  -1.3916   0.0000   0.0000   0.0000   0.5721
  -2.000   0.5237   0.01656   0.00738  -0.1637  0.7243  0.0731  -1.3295   0.0000   0.0000   0.0000   0.5650
  -1.900   0.5344   0.01644   0.00723  -0.1637  0.7217  0.0763  -1.2747   0.0000   0.0000   0.0000   0.5583
  -1.800   0.5438   0.01636   0.00713  -0.1634  0.7183  0.0798  -1.2297   0.0000   0.0000   0.0000   0.5523
  -1.700   0.5538   0.01628   0.00706  -0.1632  0.7152  0.0835  -1.1806   0.0000   0.0000   0.0000   0.5464
  -1.600   0.5643   0.01617   0.00692  -0.1631  0.7123  0.0876  -1.1338   0.0000   0.0000   0.0000   0.5405
  -1.500   0.5752   0.01607   0.00680  -0.1630  0.7096  0.0916  -1.0834   0.0000   0.0000   0.0000   0.5347
  -1.400   0.5867   0.01596   0.00666  -0.1631  0.7072  0.0967  -1.0332   0.0000   0.0000   0.0000   0.5291
  -1.300   0.5985   0.01587   0.00653  -0.1632  0.7050  0.1024  -0.9815   0.0000   0.0000   0.0000   0.5236
  -1.200   0.6093   0.01579   0.00643  -0.1632  0.7025  0.1077  -0.9324   0.0000   0.0000   0.0000   0.5186
  -1.100   0.6187   0.01574   0.00639  -0.1628  0.6992  0.1137  -0.9362   0.0000   0.0000   0.0000   0.5138
  -1.000   0.6286   0.01569   0.00635  -0.1626  0.6961  0.1202  -0.9438   0.0000   0.0000   0.0000   0.5092
  -0.900   0.6389   0.01563   0.00629  -0.1625  0.6933  0.1271  -0.9517   0.0000   0.0000   0.0000   0.5047
  -0.800   0.6497   0.01556   0.00622  -0.1625  0.6907  0.1351  -0.9600   0.0000   0.0000   0.0000   0.5002
  -0.700   0.6610   0.01549   0.00615  -0.1625  0.6883  0.1443  -0.9685   0.0000   0.0000   0.0000   0.4958
  -0.600   0.6726   0.01543   0.00607  -0.1626  0.6861  0.1543  -0.9773   0.0000   0.0000   0.0000   0.4916
  -0.500   0.6833   0.01538   0.00603  -0.1625  0.6837  0.1652  -0.9855   0.0000   0.0000   0.0000   0.4875
  -0.400   0.6927   0.01536   0.00604  -0.1622  0.6805  0.1765  -0.9927   0.0000   0.0000   0.0000   0.4838
  -0.300   0.7026   0.01533   0.00604  -0.1621  0.6775  0.1893  -1.0004   0.0000   0.0000   0.0000   0.4801
  -0.200   0.7128   0.01529   0.00603  -0.1619  0.6747  0.2041  -1.0082   0.0000   0.0000   0.0000   0.4764
  -0.100   0.7234   0.01525   0.00600  -0.1618  0.6722  0.2206  -1.0166   0.0000   0.0000   0.0000   0.4728
   0.000   0.7344   0.01519   0.00595  -0.1618  0.6698  0.2403  -1.0254   0.0000   0.0000   0.0000   0.4693
   0.100   0.7457   0.01513   0.00591  -0.1619  0.6677  0.2630  -1.0344   0.0000   0.0000   0.0000   0.4659
   0.200   0.7562   0.01508   0.00590  -0.1618  0.6654  0.2892  -1.0428   0.0000   0.0000   0.0000   0.4626
   0.300   0.7654   0.01504   0.00595  -0.1615  0.6623  0.3194  -1.0503   0.0000   0.0000   0.0000   0.4596
   0.400   0.7753   0.01496   0.00598  -0.1614  0.6595  0.3623  -1.0582   0.0000   0.0000   0.0000   0.4565
   0.500   0.7853   0.01479   0.00602  -0.1613  0.6568  0.4407  -1.0664   0.0000   0.0000   0.0000   0.4536
   0.800   0.8181   0.01388   0.00596  -0.1607  0.6501  1.0000  -1.0932   0.0000   0.0000   0.0000   0.4443
   0.900   0.8295   0.01394   0.00593  -0.1608  0.6480  1.0000  -1.1023   0.0000   0.0000   0.0000   0.4415
   1.000   0.8387   0.01402   0.00598  -0.1604  0.6450  1.0000  -1.1097   0.0000   0.0000   0.0000   0.4389
   1.100   0.8483   0.01410   0.00602  -0.1602  0.6422  1.0000  -1.1178   0.0000   0.0000   0.0000   0.4363
   1.200   0.8584   0.01417   0.00605  -0.1600  0.6395  1.0000  -1.1262   0.0000   0.0000   0.0000   0.4337
   1.300   0.8687   0.01424   0.00606  -0.1598  0.6370  1.0000  -1.1349   0.0000   0.0000   0.0000   0.4312
   1.400   0.8795   0.01430   0.00607  -0.1598  0.6347  1.0000  -1.1439   0.0000   0.0000   0.0000   0.4287
   1.500   0.8907   0.01436   0.00606  -0.1598  0.6327  1.0000  -1.1532   0.0000   0.0000   0.0000   0.4263
   1.600   0.9022   0.01442   0.00606  -0.1598  0.6308  1.0000  -1.1628   0.0000   0.0000   0.0000   0.4240
   1.700   0.9115   0.01451   0.00613  -0.1595  0.6281  1.0000  -1.1706   0.0000   0.0000   0.0000   0.4217
   1.800   0.9208   0.01460   0.00620  -0.1592  0.6253  1.0000  -1.1784   0.0000   0.0000   0.0000   0.4195
   1.900   0.9306   0.01468   0.00625  -0.1590  0.6227  1.0000  -1.1867   0.0000   0.0000   0.0000   0.4173
   2.000   0.9406   0.01476   0.00630  -0.1588  0.6202  1.0000  -1.1952   0.0000   0.0000   0.0000   0.4152
   2.100   0.9511   0.01483   0.00633  -0.1587  0.6180  1.0000  -1.2043   0.0000   0.0000   0.0000   0.4131
   2.200   0.9620   0.01490   0.00634  -0.1587  0.6159  1.0000  -1.2138   0.0000   0.0000   0.0000   0.4110
   2.300   0.9733   0.01497   0.00636  -0.1587  0.6141  1.0000  -1.2236   0.0000   0.0000   0.0000   0.4090
   2.400   0.9834   0.01506   0.00642  -0.1586  0.6118  1.0000  -1.2325   0.0000   0.0000   0.0000   0.4070
   2.500   0.9924   0.01516   0.00652  -0.1582  0.6092  1.0000  -1.2404   0.0000   0.0000   0.0000   0.4051
   2.600   1.0017   0.01526   0.00660  -0.1579  0.6066  1.0000  -1.2487   0.0000   0.0000   0.0000   0.4032
   2.700   1.0115   0.01535   0.00667  -0.1577  0.6042  1.0000  -1.2573   0.0000   0.0000   0.0000   0.4013
   2.800   1.0216   0.01543   0.00673  -0.1575  0.6019  1.0000  -1.2662   0.0000   0.0000   0.0000   0.3995
   2.900   1.0321   0.01551   0.00678  -0.1575  0.5998  1.0000  -1.2754   0.0000   0.0000   0.0000   0.3977
   3.000   1.0430   0.01559   0.00685  -0.1574  0.5979  1.0000  -1.2854   0.0000   0.0000   0.0000   0.3960
   3.100   1.0544   0.01566   0.00688  -0.1575  0.5962  1.0000  -1.2957   0.0000   0.0000   0.0000   0.3943
   3.200   1.0631   0.01578   0.00701  -0.1571  0.5937  1.0000  -1.3037   0.0000   0.0000   0.0000   0.3925
   3.300   1.0719   0.01588   0.00712  -0.1567  0.5912  1.0000  -1.3120   0.0000   0.0000   0.0000   0.3908
   3.400   1.0812   0.01599   0.00723  -0.1565  0.5888  1.0000  -1.3206   0.0000   0.0000   0.0000   0.3892
   3.500   1.0909   0.01608   0.00732  -0.1562  0.5865  1.0000  -1.3295   0.0000   0.0000   0.0000   0.3876
   3.600   1.1009   0.01618   0.00740  -0.1561  0.5844  1.0000  -1.3387   0.0000   0.0000   0.0000   0.3860
   3.700   1.1113   0.01626   0.00746  -0.1560  0.5825  1.0000  -1.3483   0.0000   0.0000   0.0000   0.3844
   3.800   1.1223   0.01635   0.00752  -0.1560  0.5807  1.0000  -1.3587   0.0000   0.0000   0.0000   0.3829
   3.900   1.1333   0.01644   0.00758  -0.1560  0.5789  1.0000  -1.3691   0.0000   0.0000   0.0000   0.3815
   4.000   1.1413   0.01657   0.00774  -0.1555  0.5764  1.0000  -1.3770   0.0000   0.0000   0.0000   0.3799
   4.100   1.1499   0.01668   0.00790  -0.1551  0.5740  1.0000  -1.3854   0.0000   0.0000   0.0000   0.3784
   4.200   1.1590   0.01680   0.00803  -0.1548  0.5717  1.0000  -1.3943   0.0000   0.0000   0.0000   0.3769
   4.300   1.1685   0.01690   0.00814  -0.1545  0.5695  1.0000  -1.4035   0.0000   0.0000   0.0000   0.3755
   4.400   1.1784   0.01700   0.00824  -0.1543  0.5675  1.0000  -1.4130   0.0000   0.0000   0.0000   0.3741
   4.500   1.1887   0.01710   0.00832  -0.1542  0.5657  1.0000  -1.4232   0.0000   0.0000   0.0000   0.3727
   4.600   1.1995   0.01719   0.00840  -0.1542  0.5640  1.0000  -1.4339   0.0000   0.0000   0.0000   0.3714
   4.700   1.2103   0.01730   0.00848  -0.1542  0.5623  1.0000  -1.4445   0.0000   0.0000   0.0000   0.3701
   4.800   1.2179   0.01744   0.00867  -0.1536  0.5598  1.0000  -1.4525   0.0000   0.0000   0.0000   0.3687
   4.900   1.2261   0.01757   0.00883  -0.1531  0.5575  1.0000  -1.4610   0.0000   0.0000   0.0000   0.3674
   5.000   1.2348   0.01769   0.00898  -0.1528  0.5552  1.0000  -1.4699   0.0000   0.0000   0.0000   0.3661
   5.100   1.2440   0.01781   0.00911  -0.1525  0.5531  1.0000  -1.4794   0.0000   0.0000   0.0000   0.3648
   5.200   1.2536   0.01792   0.00923  -0.1523  0.5512  1.0000  -1.4895   0.0000   0.0000   0.0000   0.3635
   5.300   1.2637   0.01802   0.00937  -0.1521  0.5494  1.0000  -1.5000   0.0000   0.0000   0.0000   0.3623
   5.400   1.2744   0.01813   0.00947  -0.1521  0.5477  1.0000  -1.5110   0.0000   0.0000   0.0000   0.3611
   5.500   1.2855   0.01823   0.00956  -0.1521  0.5461  1.0000  -1.5224   0.0000   0.0000   0.0000   0.3600
   5.600   1.2924   0.01839   0.00978  -0.1514  0.5438  1.0000  -1.5302   0.0000   0.0000   0.0000   0.3587
   5.700   1.3000   0.01854   0.00997  -0.1509  0.5415  1.0000  -1.5387   0.0000   0.0000   0.0000   0.3574
   5.800   1.3082   0.01868   0.01014  -0.1504  0.5392  1.0000  -1.5481   0.0000   0.0000   0.0000   0.3562
   5.900   1.3169   0.01881   0.01030  -0.1501  0.5372  1.0000  -1.5578   0.0000   0.0000   0.0000   0.3550
   6.000   1.3262   0.01893   0.01044  -0.1498  0.5353  1.0000  -1.5681   0.0000   0.0000   0.0000   0.3538
   6.100   1.3360   0.01904   0.01057  -0.1496  0.5335  1.0000  -1.5788   0.0000   0.0000   0.0000   0.3527
   6.200   1.3465   0.01916   0.01069  -0.1495  0.5318  1.0000  -1.5902   0.0000   0.0000   0.0000   0.3517
   6.300   1.3579   0.01927   0.01080  -0.1496  0.5303  1.0000  -1.6217   0.0000   0.0000   0.0000   0.3507
   6.400   1.3643   0.01944   0.01106  -0.1489  0.5280  1.0000  -1.6606   0.0000   0.0000   0.0000   0.3494
   6.500   1.3710   0.01961   0.01129  -0.1482  0.5258  1.0000  -1.7004   0.0000   0.0000   0.0000   0.3482
   6.600   1.3785   0.01976   0.01150  -0.1476  0.5236  1.0000  -1.7424   0.0000   0.0000   0.0000   0.3471
   6.700   1.3867   0.01991   0.01168  -0.1472  0.5215  1.0000  -1.7863   0.0000   0.0000   0.0000   0.3460
   6.800   1.3956   0.02004   0.01185  -0.1468  0.5196  1.0000  -1.8321   0.0000   0.0000   0.0000   0.3449
   6.900   1.4050   0.02017   0.01200  -0.1466  0.5178  1.0000  -1.8847   0.0000   0.0000   0.0000   0.3439
   7.000   1.4153   0.02029   0.01214  -0.1465  0.5161  1.0000  -1.9399   0.0000   0.0000   0.0000   0.3429
   7.100   1.4265   0.02041   0.01227  -0.1466  0.5146  1.0000  -2.0238   0.0000   0.0000   0.0000   0.3420
   7.200   1.4327   0.02059   0.01252  -0.1458  0.5125  1.0000  -2.1122   0.0000   0.0000   0.0000   0.3408
   7.300   1.4384   0.02078   0.01279  -0.1449  0.5102  1.0000  -2.1995   0.0000   0.0000   0.0000   0.3397
   7.400   1.4450   0.02096   0.01302  -0.1442  0.5081  1.0000  -2.2928   0.0000   0.0000   0.0000   0.3386
   7.500   1.4525   0.02112   0.01324  -0.1436  0.5060  1.0000  -2.3918   0.0000   0.0000   0.0000   0.3375
   7.600   1.4608   0.02127   0.01346  -0.1432  0.5040  1.0000  -2.4928   0.0000   0.0000   0.0000   0.3365
   7.700   1.4700   0.02140   0.01363  -0.1429  0.5022  1.0000  -2.6030   0.0000   0.0000   0.0000   0.3355
   7.800   1.4800   0.02153   0.01379  -0.1427  0.5005  1.0000  -2.7197   0.0000   0.0000   0.0000   0.3346
   7.900   1.4913   0.02165   0.01393  -0.1428  0.4989  1.0000  -2.8456   0.0000   0.0000   0.0000   0.3338
   8.000   1.4946   0.02186   0.01423  -0.1415  0.4963  1.0000  -2.9268   0.0000   0.0000   0.0000   0.3325
   8.100   1.4975   0.02205   0.01449  -0.1401  0.4931  1.0000  -3.0071   0.0000   0.0000   0.0000   0.3313
   8.200   1.5020   0.02217   0.01465  -0.1390  0.4894  1.0000  -3.0977   0.0000   0.0000   0.0000   0.3300
   8.300   1.5095   0.02215   0.01460  -0.1382  0.4844  1.0000  -3.2087   0.0000   0.0000   0.0000   0.3289
   8.400   1.5080   0.02229   0.01479  -0.1359  0.4795  1.0000  -3.2663   0.0000   0.0000   0.0000   0.3273
   8.500   1.5057   0.02240   0.01493  -0.1335  0.4741  1.0000  -3.3201   0.0000   0.0000   0.0000   0.3257
   8.600   1.5080   0.02239   0.01486  -0.1318  0.4673  1.0000  -3.4038   0.0000   0.0000   0.0000   0.3242
   8.700   1.5033   0.02260   0.01514  -0.1290  0.4616  1.0000  -3.4424   0.0000   0.0000   0.0000   0.3225
   8.800   1.5034   0.02267   0.01515  -0.1270  0.4541  1.0000  -3.5131   0.0000   0.0000   0.0000   0.3210
   8.900   1.4993   0.02291   0.01545  -0.1245  0.4476  1.0000  -3.5562   0.0000   0.0000   0.0000   0.3194
   9.000   1.4981   0.02307   0.01556  -0.1224  0.4398  1.0000  -3.6185   0.0000   0.0000   0.0000   0.3179
   9.100   1.4949   0.02335   0.01590  -0.1201  0.4327  1.0000  -3.6688   0.0000   0.0000   0.0000   0.3164
   9.200   1.4934   0.02357   0.01608  -0.1180  0.4246  1.0000  -3.7293   0.0000   0.0000   0.0000   0.3149
   9.300   1.4900   0.02392   0.01646  -0.1159  0.4167  1.0000  -3.7762   0.0000   0.0000   0.0000   0.3135
   9.400   1.4877   0.02424   0.01675  -0.1138  0.4082  1.0000  -3.8314   0.0000   0.0000   0.0000   0.3121
   9.500   1.4848   0.02463   0.01715  -0.1118  0.3992  1.0000  -3.8816   0.0000   0.0000   0.0000   0.3107
   9.600   1.4821   0.02505   0.01755  -0.1099  0.3898  1.0000  -3.9335   0.0000   0.0000   0.0000   0.3093
   9.700   1.4794   0.02550   0.01797  -0.1080  0.3800  1.0000  -3.9851   0.0000   0.0000   0.0000   0.3080
   9.800   1.4765   0.02599   0.01844  -0.1062  0.3694  1.0000  -4.0354   0.0000   0.0000   0.0000   0.3067
   9.900   1.4735   0.02653   0.01896  -0.1044  0.3581  1.0000  -4.0849   0.0000   0.0000   0.0000   0.3055
  10.000   1.4705   0.02710   0.01950  -0.1026  0.3461  1.0000  -4.1335   0.0000   0.0000   0.0000   0.3043
  10.100   1.4669   0.02774   0.02009  -0.1009  0.3334  1.0000  -4.1791   0.0000   0.0000   0.0000   0.3031
  10.200   1.4629   0.02844   0.02073  -0.0992  0.3199  1.0000  -4.2217   0.0000   0.0000   0.0000   0.3019
  10.300   1.4583   0.02920   0.02143  -0.0974  0.3057  1.0000  -4.2603   0.0000   0.0000   0.0000   0.3007
  10.400   1.4531   0.03005   0.02220  -0.0957  0.2912  1.0000  -4.2941   0.0000   0.0000   0.0000   0.2996
  10.500   1.4473   0.03097   0.02305  -0.0940  0.2757  1.0000  -4.3245   0.0000   0.0000   0.0000   0.2985
  10.600   1.4408   0.03199   0.02398  -0.0924  0.2598  1.0000  -4.3493   0.0000   0.0000   0.0000   0.2975
  10.700   1.4336   0.03311   0.02501  -0.0907  0.2440  1.0000  -4.3692   0.0000   0.0000   0.0000   0.2964
  10.800   1.4263   0.03430   0.02610  -0.0892  0.2280  1.0000  -4.3879   0.0000   0.0000   0.0000   0.2955
  10.900   1.4190   0.03554   0.02726  -0.0877  0.2128  1.0000  -4.4059   0.0000   0.0000   0.0000   0.2946
  11.000   1.4116   0.03684   0.02848  -0.0863  0.1976  1.0000  -4.4222   0.0000   0.0000   0.0000   0.2938
  11.100   1.4035   0.03826   0.02981  -0.0850  0.1819  1.0000  -4.4333   0.0000   0.0000   0.0000   0.2930
  11.200   1.3950   0.03976   0.03123  -0.0838  0.1661  1.0000  -4.4416   0.0000   0.0000   0.0000   0.2923
  11.300   1.3871   0.04129   0.03266  -0.0826  0.1510  1.0000  -4.4523   0.0000   0.0000   0.0000   0.2916
  11.400   1.3799   0.04279   0.03409  -0.0816  0.1378  1.0000  -4.4678   0.0000   0.0000   0.0000   0.2910
  11.500   1.3740   0.04423   0.03548  -0.0808  0.1262  1.0000  -4.4907   0.0000   0.0000   0.0000   0.2904
  11.600   1.3689   0.04563   0.03684  -0.0800  0.1162  1.0000  -4.5185   0.0000   0.0000   0.0000   0.2899
  11.700   1.3645   0.04701   0.03819  -0.0793  0.1072  1.0000  -4.5503   0.0000   0.0000   0.0000   0.2894
  11.800   1.3605   0.04838   0.03953  -0.0787  0.0993  1.0000  -4.5848   0.0000   0.0000   0.0000   0.2889
  12.000   1.3542   0.05103   0.04216  -0.0776  0.0857  1.0000  -4.6636   0.0000   0.0000   0.0000   0.2880
  12.100   1.3517   0.05232   0.04345  -0.0771  0.0800  1.0000  -4.7070   0.0000   0.0000   0.0000   0.2876
  12.200   1.3492   0.05364   0.04477  -0.0767  0.0748  1.0000  -4.7500   0.0000   0.0000   0.0000   0.2872
  12.300   1.3469   0.05496   0.04609  -0.0763  0.0695  1.0000  -4.7942   0.0000   0.0000   0.0000   0.2868
  12.400   1.3447   0.05630   0.04743  -0.0760  0.0645  1.0000  -4.8382   0.0000   0.0000   0.0000   0.2864
  12.500   1.3423   0.05768   0.04882  -0.0757  0.0597  1.0000  -4.8801   0.0000   0.0000   0.0000   0.2861
  12.600   1.3402   0.05904   0.05019  -0.0754  0.0549  1.0000  -4.9236   0.0000   0.0000   0.0000   0.2858
  12.700   1.3382   0.06041   0.05155  -0.0752  0.0503  1.0000  -4.9683   0.0000   0.0000   0.0000   0.2855
  12.800   1.3361   0.06181   0.05295  -0.0750  0.0460  1.0000  -5.0115   0.0000   0.0000   0.0000   0.2852
  12.900   1.3344   0.06319   0.05432  -0.0748  0.0418  1.0000  -5.0576   0.0000   0.0000   0.0000   0.2850
  13.000   1.3330   0.06455   0.05569  -0.0746  0.0378  1.0000  -5.1047   0.0000   0.0000   0.0000   0.2847
  13.100   1.3313   0.06596   0.05709  -0.0745  0.0341  1.0000  -5.1494   0.0000   0.0000   0.0000   0.2845
  13.200   1.3302   0.06732   0.05846  -0.0744  0.0303  1.0000  -5.1976   0.0000   0.0000   0.0000   0.2843
  13.300   1.3288   0.06872   0.05986  -0.0743  0.0264  1.0000  -5.2434   0.0000   0.0000   0.0000   0.2841
  13.400   1.3271   0.07018   0.06130  -0.0743  0.0224  1.0000  -5.2872   0.0000   0.0000   0.0000   0.2839
  13.500   1.3253   0.07167   0.06278  -0.0742  0.0185  1.0000  -5.3298   0.0000   0.0000   0.0000   0.2838
  13.600   1.3239   0.07312   0.06422  -0.0742  0.0150  1.0000  -5.3746   0.0000   0.0000   0.0000   0.2836
  13.700   1.3232   0.07451   0.06563  -0.0742  0.0125  1.0000  -5.4208   0.0000   0.0000   0.0000   0.2834
  13.800   1.3224   0.07592   0.06706  -0.0742  0.0108  1.0000  -5.4654   0.0000   0.0000   0.0000   0.2833
  13.900   1.3220   0.07728   0.06846  -0.0743  0.0094  1.0000  -5.5105   0.0000   0.0000   0.0000   0.2831
  14.000   1.3214   0.07869   0.06989  -0.0743  0.0083  1.0000  -5.5548   0.0000   0.0000   0.0000   0.2829
  14.100   1.3208   0.08011   0.07134  -0.0744  0.0076  1.0000  -5.5985   0.0000   0.0000   0.0000   0.2828
  14.200   1.3207   0.08148   0.07276  -0.0744  0.0070  1.0000  -5.6435   0.0000   0.0000   0.0000   0.2826
  14.300   1.3206   0.08285   0.07418  -0.0745  0.0065  1.0000  -5.6892   0.0000   0.0000   0.0000   0.2825
  14.400   1.3204   0.08424   0.07561  -0.0746  0.0061  1.0000  -5.7350   0.0000   0.0000   0.0000   0.2824
  14.500   1.3202   0.08564   0.07706  -0.0747  0.0058  1.0000  -5.7819   0.0000   0.0000   0.0000   0.2823
  14.600   1.3200   0.08704   0.07850  -0.0748  0.0055  1.0000  -5.8298   0.0000   0.0000   0.0000   0.2821
  14.700   1.3198   0.08846   0.07996  -0.0750  0.0053  1.0000  -5.8772   0.0000   0.0000   0.0000   0.2821
  14.800   1.3196   0.08988   0.08141  -0.0751  0.0051  1.0000  -5.9234   0.0000   0.0000   0.0000   0.2820
  14.900   1.3199   0.09123   0.08285  -0.0753  0.0049  1.0000  -5.9726   0.0000   0.0000   0.0000   0.2819
  15.000   1.3203   0.09259   0.08426  -0.0754  0.0048  1.0000  -6.0214   0.0000   0.0000   0.0000   0.2818


