xflr5 v6.59

 Calculated polar for: SF-15

 1 1 Reynolds number fixed          Mach number fixed         

 xtrf =   1.000 (top)        1.000 (bottom)
 Mach =   0.050     Re =     0.200 e 6     Ncrit =   5.000

  alpha     CL        CD       CDp       Cm    Top Xtr Bot Xtr   Cpmin    Chinge    XCp    
 ------- -------- --------- --------- -------- ------- ------- -------- --------- ---------
  -3.000   0.5156   0.01432   0.00653  -0.1823  0.7405  0.0431  -1.9236   0.0000   0.0000   0.0000   0.6077
  -2.900   0.5265   0.01416   0.00637  -0.1823  0.7373  0.0442  -1.8615   0.0000   0.0000   0.0000   0.6001
  -2.800   0.5376   0.01406   0.00627  -0.1823  0.7342  0.0457  -1.7955   0.0000   0.0000   0.0000   0.5928
  -2.700   0.5488   0.01396   0.00613  -0.1823  0.7313  0.0478  -1.7321   0.0000   0.0000   0.0000   0.5856
  -2.600   0.5603   0.01385   0.00594  -0.1823  0.7284  0.0499  -1.6720   0.0000   0.0000   0.0000   0.5786
  -2.500   0.5717   0.01374   0.00583  -0.1824  0.7258  0.0517  -1.6060   0.0000   0.0000   0.0000   0.5719
  -2.400   0.5834   0.01364   0.00568  -0.1824  0.7234  0.0537  -1.5434   0.0000   0.0000   0.0000   0.5654
  -2.300   0.5943   0.01354   0.00554  -0.1824  0.7202  0.0558  -1.4860   0.0000   0.0000   0.0000   0.5594
  -2.200   0.6052   0.01344   0.00545  -0.1824  0.7170  0.0579  -1.4252   0.0000   0.0000   0.0000   0.5536
  -2.100   0.6163   0.01337   0.00536  -0.1823  0.7140  0.0606  -1.3634   0.0000   0.0000   0.0000   0.5479
  -2.000   0.6275   0.01330   0.00525  -0.1823  0.7110  0.0637  -1.3041   0.0000   0.0000   0.0000   0.5424
  -1.900   0.6388   0.01323   0.00516  -0.1823  0.7081  0.0665  -1.2419   0.0000   0.0000   0.0000   0.5371
  -1.800   0.6502   0.01316   0.00505  -0.1824  0.7055  0.0699  -1.1889   0.0000   0.0000   0.0000   0.5319
  -1.700   0.6615   0.01309   0.00496  -0.1824  0.7028  0.0731  -1.1370   0.0000   0.0000   0.0000   0.5270
  -1.600   0.6723   0.01305   0.00491  -0.1823  0.6996  0.0771  -1.0865   0.0000   0.0000   0.0000   0.5223
  -1.500   0.6832   0.01299   0.00486  -0.1823  0.6964  0.0812  -1.0357   0.0000   0.0000   0.0000   0.5177
  -1.400   0.6942   0.01295   0.00479  -0.1822  0.6933  0.0860  -0.9855   0.0000   0.0000   0.0000   0.5132
  -1.300   0.7054   0.01289   0.00473  -0.1822  0.6904  0.0907  -0.9348   0.0000   0.0000   0.0000   0.5089
  -1.200   0.7167   0.01285   0.00467  -0.1822  0.6876  0.0963  -0.9375   0.0000   0.0000   0.0000   0.5046
  -1.100   0.7280   0.01282   0.00460  -0.1822  0.6851  0.1026  -0.9469   0.0000   0.0000   0.0000   0.5005
  -1.000   0.7388   0.01277   0.00458  -0.1822  0.6819  0.1090  -0.9558   0.0000   0.0000   0.0000   0.4966
  -0.900   0.7496   0.01274   0.00455  -0.1821  0.6787  0.1163  -0.9650   0.0000   0.0000   0.0000   0.4928
  -0.800   0.7604   0.01271   0.00452  -0.1820  0.6755  0.1245  -0.9744   0.0000   0.0000   0.0000   0.4891
  -0.700   0.7714   0.01268   0.00449  -0.1820  0.6724  0.1337  -0.9839   0.0000   0.0000   0.0000   0.4855
  -0.600   0.7825   0.01265   0.00446  -0.1820  0.6696  0.1442  -0.9936   0.0000   0.0000   0.0000   0.4820
  -0.500   0.7938   0.01262   0.00443  -0.1820  0.6670  0.1564  -1.0037   0.0000   0.0000   0.0000   0.4785
  -0.400   0.8045   0.01260   0.00443  -0.1819  0.6639  0.1696  -1.0134   0.0000   0.0000   0.0000   0.4752
  -0.300   0.8152   0.01257   0.00444  -0.1819  0.6607  0.1844  -1.0231   0.0000   0.0000   0.0000   0.4721
  -0.200   0.8259   0.01254   0.00445  -0.1818  0.6574  0.2013  -1.0332   0.0000   0.0000   0.0000   0.4689
  -0.100   0.8368   0.01252   0.00445  -0.1818  0.6543  0.2198  -1.0435   0.0000   0.0000   0.0000   0.4659
   0.000   0.8477   0.01250   0.00445  -0.1817  0.6514  0.2405  -1.0538   0.0000   0.0000   0.0000   0.4629
   0.100   0.8587   0.01248   0.00445  -0.1817  0.6488  0.2630  -1.0645   0.0000   0.0000   0.0000   0.4599
   0.200   0.8693   0.01245   0.00447  -0.1816  0.6457  0.2870  -1.0750   0.0000   0.0000   0.0000   0.4571
   0.300   0.8798   0.01243   0.00451  -0.1815  0.6423  0.3125  -1.0854   0.0000   0.0000   0.0000   0.4544
   0.400   0.8904   0.01241   0.00454  -0.1814  0.6391  0.3401  -1.0960   0.0000   0.0000   0.0000   0.4517
   0.500   0.9009   0.01238   0.00457  -0.1813  0.6360  0.3699  -1.1070   0.0000   0.0000   0.0000   0.4490
   0.600   0.9116   0.01237   0.00459  -0.1813  0.6331  0.4021  -1.1181   0.0000   0.0000   0.0000   0.4465
   0.700   0.9224   0.01235   0.00462  -0.1812  0.6304  0.4372  -1.1293   0.0000   0.0000   0.0000   0.4439
   0.800   0.9325   0.01232   0.00468  -0.1810  0.6271  0.4735  -1.1403   0.0000   0.0000   0.0000   0.4414
   0.900   0.9426   0.01228   0.00474  -0.1808  0.6238  0.5131  -1.1515   0.0000   0.0000   0.0000   0.4390
   1.000   0.9526   0.01225   0.00479  -0.1805  0.6205  0.5552  -1.1626   0.0000   0.0000   0.0000   0.4366
   1.100   0.9625   0.01221   0.00483  -0.1803  0.6175  0.6005  -1.1738   0.0000   0.0000   0.0000   0.4342
   1.200   0.9724   0.01217   0.00486  -0.1799  0.6147  0.6499  -1.1855   0.0000   0.0000   0.0000   0.4318
   1.300   0.9817   0.01210   0.00488  -0.1795  0.6118  0.7050  -1.1967   0.0000   0.0000   0.0000   0.4295
   1.400   0.9881   0.01187   0.00488  -0.1783  0.6086  0.8011  -1.2060   0.0000   0.0000   0.0000   0.4270
   1.600   1.0093   0.01183   0.00487  -0.1780  0.6020  1.0000  -1.2310   0.0000   0.0000   0.0000   0.4226
   1.700   1.0199   0.01190   0.00488  -0.1779  0.5990  1.0000  -1.2436   0.0000   0.0000   0.0000   0.4205
   1.800   1.0305   0.01198   0.00490  -0.1777  0.5962  1.0000  -1.2563   0.0000   0.0000   0.0000   0.4184
   1.900   1.0408   0.01204   0.00495  -0.1776  0.5928  1.0000  -1.2690   0.0000   0.0000   0.0000   0.4164
   2.000   1.0510   0.01211   0.00499  -0.1774  0.5895  1.0000  -1.2819   0.0000   0.0000   0.0000   0.4144
   2.100   1.0612   0.01218   0.00502  -0.1772  0.5861  1.0000  -1.2949   0.0000   0.0000   0.0000   0.4125
   2.200   1.0716   0.01226   0.00505  -0.1770  0.5830  1.0000  -1.3080   0.0000   0.0000   0.0000   0.4106
   2.300   1.0819   0.01234   0.00508  -0.1769  0.5800  1.0000  -1.3217   0.0000   0.0000   0.0000   0.4087
   2.400   1.0921   0.01241   0.00513  -0.1767  0.5769  1.0000  -1.3352   0.0000   0.0000   0.0000   0.4069
   2.500   1.1022   0.01248   0.00519  -0.1765  0.5734  1.0000  -1.3486   0.0000   0.0000   0.0000   0.4051
   2.600   1.1122   0.01256   0.00523  -0.1763  0.5700  1.0000  -1.3621   0.0000   0.0000   0.0000   0.4033
   2.700   1.1223   0.01264   0.00528  -0.1761  0.5667  1.0000  -1.3762   0.0000   0.0000   0.0000   0.4015
   2.800   1.1324   0.01273   0.00532  -0.1759  0.5637  1.0000  -1.3905   0.0000   0.0000   0.0000   0.3998
   2.900   1.1424   0.01281   0.00537  -0.1757  0.5605  1.0000  -1.4046   0.0000   0.0000   0.0000   0.3981
   3.000   1.1523   0.01288   0.00544  -0.1754  0.5570  1.0000  -1.4186   0.0000   0.0000   0.0000   0.3965
   3.100   1.1621   0.01296   0.00553  -0.1752  0.5535  1.0000  -1.4330   0.0000   0.0000   0.0000   0.3948
   3.200   1.1720   0.01305   0.00558  -0.1749  0.5502  1.0000  -1.4478   0.0000   0.0000   0.0000   0.3932
   3.300   1.1819   0.01314   0.00563  -0.1747  0.5472  1.0000  -1.4626   0.0000   0.0000   0.0000   0.3916
   3.400   1.1917   0.01322   0.00570  -0.1744  0.5438  1.0000  -1.4773   0.0000   0.0000   0.0000   0.3900
   3.500   1.2013   0.01330   0.00578  -0.1742  0.5403  1.0000  -1.4919   0.0000   0.0000   0.0000   0.3885
   3.600   1.2109   0.01339   0.00585  -0.1739  0.5367  1.0000  -1.5072   0.0000   0.0000   0.0000   0.3870
   3.700   1.2206   0.01349   0.00591  -0.1736  0.5334  1.0000  -1.5225   0.0000   0.0000   0.0000   0.3855
   3.800   1.2302   0.01359   0.00597  -0.1733  0.5303  1.0000  -1.5380   0.0000   0.0000   0.0000   0.3840
   3.900   1.2397   0.01367   0.00606  -0.1730  0.5267  1.0000  -1.5532   0.0000   0.0000   0.0000   0.3825
   4.000   1.2491   0.01376   0.00614  -0.1727  0.5231  1.0000  -1.5684   0.0000   0.0000   0.0000   0.3811
   4.100   1.2584   0.01385   0.00622  -0.1724  0.5195  1.0000  -1.5841   0.0000   0.0000   0.0000   0.3796
   4.200   1.2678   0.01396   0.00632  -0.1721  0.5161  1.0000  -1.6000   0.0000   0.0000   0.0000   0.3782
   4.300   1.2771   0.01406   0.00640  -0.1718  0.5128  1.0000  -1.6160   0.0000   0.0000   0.0000   0.3768
   4.400   1.2863   0.01415   0.00650  -0.1714  0.5091  1.0000  -1.6318   0.0000   0.0000   0.0000   0.3755
   4.500   1.2954   0.01425   0.00659  -0.1710  0.5054  1.0000  -1.6476   0.0000   0.0000   0.0000   0.3741
   4.600   1.3044   0.01435   0.00667  -0.1707  0.5018  1.0000  -1.6635   0.0000   0.0000   0.0000   0.3727
   4.700   1.3134   0.01447   0.00676  -0.1703  0.4986  1.0000  -1.6798   0.0000   0.0000   0.0000   0.3714
   4.800   1.3224   0.01456   0.00686  -0.1699  0.4948  1.0000  -1.6963   0.0000   0.0000   0.0000   0.3701
   4.900   1.3312   0.01466   0.00697  -0.1695  0.4909  1.0000  -1.7127   0.0000   0.0000   0.0000   0.3688
   5.000   1.3399   0.01478   0.00706  -0.1691  0.4872  1.0000  -1.7290   0.0000   0.0000   0.0000   0.3675
   5.100   1.3485   0.01490   0.00716  -0.1686  0.4838  1.0000  -1.7454   0.0000   0.0000   0.0000   0.3662
   5.200   1.3572   0.01500   0.00727  -0.1682  0.4800  1.0000  -1.7617   0.0000   0.0000   0.0000   0.3649
   5.300   1.3658   0.01511   0.00741  -0.1678  0.4761  1.0000  -1.7780   0.0000   0.0000   0.0000   0.3637
   5.400   1.3741   0.01523   0.00751  -0.1673  0.4723  1.0000  -1.7944   0.0000   0.0000   0.0000   0.3624
   5.500   1.3823   0.01536   0.00762  -0.1667  0.4688  1.0000  -1.8112   0.0000   0.0000   0.0000   0.3612
   5.600   1.3906   0.01547   0.00774  -0.1663  0.4650  1.0000  -1.8282   0.0000   0.0000   0.0000   0.3599
   5.700   1.3988   0.01559   0.00786  -0.1657  0.4610  1.0000  -1.8449   0.0000   0.0000   0.0000   0.3587
   5.800   1.4067   0.01572   0.00798  -0.1652  0.4571  1.0000  -1.8615   0.0000   0.0000   0.0000   0.3575
   5.900   1.4144   0.01586   0.00810  -0.1646  0.4535  1.0000  -1.8780   0.0000   0.0000   0.0000   0.3563
   6.000   1.4224   0.01598   0.00824  -0.1640  0.4496  1.0000  -1.8946   0.0000   0.0000   0.0000   0.3551
   6.100   1.4301   0.01610   0.00837  -0.1635  0.4455  1.0000  -1.9111   0.0000   0.0000   0.0000   0.3539
   6.200   1.4374   0.01624   0.00850  -0.1628  0.4416  1.0000  -1.9272   0.0000   0.0000   0.0000   0.3527
   6.300   1.4445   0.01640   0.00863  -0.1621  0.4380  1.0000  -1.9436   0.0000   0.0000   0.0000   0.3515
   6.400   1.4521   0.01652   0.00877  -0.1615  0.4339  1.0000  -1.9607   0.0000   0.0000   0.0000   0.3503
   6.500   1.4592   0.01666   0.00894  -0.1608  0.4298  1.0000  -1.9774   0.0000   0.0000   0.0000   0.3491
   6.600   1.4658   0.01681   0.00908  -0.1600  0.4260  1.0000  -1.9937   0.0000   0.0000   0.0000   0.3480
   6.700   1.4724   0.01696   0.00923  -0.1592  0.4222  1.0000  -2.0100   0.0000   0.0000   0.0000   0.3468
   6.800   1.4788   0.01710   0.00938  -0.1584  0.4181  1.0000  -2.0260   0.0000   0.0000   0.0000   0.3456
   6.900   1.4844   0.01725   0.00953  -0.1574  0.4141  1.0000  -2.0412   0.0000   0.0000   0.0000   0.3444
   7.100   1.4921   0.01760   0.00985  -0.1549  0.4024  1.0000  -2.0681   0.0000   0.0000   0.0000   0.3418
   7.200   1.4936   0.01783   0.01003  -0.1532  0.3948  1.0000  -2.0791   0.0000   0.0000   0.0000   0.3404
   7.300   1.4953   0.01805   0.01022  -0.1515  0.3851  1.0000  -2.0904   0.0000   0.0000   0.0000   0.3390
   7.400   1.4962   0.01832   0.01044  -0.1498  0.3750  1.0000  -2.1008   0.0000   0.0000   0.0000   0.3376
   7.500   1.4961   0.01863   0.01068  -0.1479  0.3648  1.0000  -2.1100   0.0000   0.0000   0.0000   0.3362
   7.600   1.4956   0.01897   0.01095  -0.1461  0.3542  1.0000  -2.1193   0.0000   0.0000   0.0000   0.3348
   7.700   1.4957   0.01931   0.01123  -0.1443  0.3426  1.0000  -2.1294   0.0000   0.0000   0.0000   0.3335
   7.800   1.4958   0.01968   0.01153  -0.1426  0.3315  1.0000  -2.1393   0.0000   0.0000   0.0000   0.3322
   7.900   1.4959   0.02006   0.01185  -0.1410  0.3212  1.0000  -2.1491   0.0000   0.0000   0.0000   0.3309
   8.000   1.4959   0.02047   0.01222  -0.1393  0.3111  1.0000  -2.1588   0.0000   0.0000   0.0000   0.3296
   8.100   1.4976   0.02084   0.01255  -0.1380  0.3029  1.0000  -2.1704   0.0000   0.0000   0.0000   0.3285
   8.200   1.5012   0.02114   0.01284  -0.1369  0.2976  1.0000  -2.1840   0.0000   0.0000   0.0000   0.3274
   8.300   1.5047   0.02145   0.01315  -0.1358  0.2923  1.0000  -2.1976   0.0000   0.0000   0.0000   0.3263
   8.400   1.5075   0.02180   0.01348  -0.1347  0.2876  1.0000  -2.2103   0.0000   0.0000   0.0000   0.3252
   8.500   1.5116   0.02210   0.01379  -0.1337  0.2824  1.0000  -2.2339   0.0000   0.0000   0.0000   0.3241
   8.600   1.5148   0.02245   0.01413  -0.1327  0.2775  1.0000  -2.3020   0.0000   0.0000   0.0000   0.3231
   8.700   1.5182   0.02280   0.01447  -0.1317  0.2729  1.0000  -2.3713   0.0000   0.0000   0.0000   0.3221
   8.800   1.5217   0.02315   0.01482  -0.1307  0.2680  1.0000  -2.4417   0.0000   0.0000   0.0000   0.3210
   8.900   1.5245   0.02354   0.01520  -0.1297  0.2636  1.0000  -2.5086   0.0000   0.0000   0.0000   0.3200
   9.000   1.5284   0.02388   0.01556  -0.1288  0.2591  1.0000  -2.5810   0.0000   0.0000   0.0000   0.3190
   9.100   1.5318   0.02426   0.01593  -0.1278  0.2545  1.0000  -2.6516   0.0000   0.0000   0.0000   0.3181
   9.300   1.5382   0.02504   0.01673  -0.1259  0.2462  1.0000  -2.7913   0.0000   0.0000   0.0000   0.3161
   9.400   1.5412   0.02546   0.01715  -0.1250  0.2417  1.0000  -2.8605   0.0000   0.0000   0.0000   0.3152
   9.500   1.5428   0.02596   0.01765  -0.1239  0.2356  1.0000  -2.9242   0.0000   0.0000   0.0000   0.3142
   9.600   1.5428   0.02657   0.01822  -0.1227  0.2274  1.0000  -2.9791   0.0000   0.0000   0.0000   0.3132
   9.700   1.5423   0.02722   0.01882  -0.1214  0.2179  1.0000  -3.0311   0.0000   0.0000   0.0000   0.3123
   9.800   1.5413   0.02792   0.01947  -0.1202  0.2077  1.0000  -3.0803   0.0000   0.0000   0.0000   0.3113
   9.900   1.5400   0.02866   0.02016  -0.1190  0.1979  1.0000  -3.1278   0.0000   0.0000   0.0000   0.3104
  10.000   1.5392   0.02940   0.02084  -0.1178  0.1891  1.0000  -3.1776   0.0000   0.0000   0.0000   0.3095
  10.100   1.5405   0.03001   0.02145  -0.1169  0.1827  1.0000  -3.2374   0.0000   0.0000   0.0000   0.3086
  10.200   1.5421   0.03061   0.02204  -0.1160  0.1774  1.0000  -3.2995   0.0000   0.0000   0.0000   0.3078
  10.300   1.5436   0.03123   0.02266  -0.1151  0.1719  1.0000  -3.3604   0.0000   0.0000   0.0000   0.3070
  10.400   1.5452   0.03186   0.02328  -0.1143  0.1668  1.0000  -3.4214   0.0000   0.0000   0.0000   0.3062
  10.500   1.5468   0.03250   0.02392  -0.1135  0.1615  1.0000  -3.4824   0.0000   0.0000   0.0000   0.3054
  10.600   1.5481   0.03317   0.02459  -0.1126  0.1563  1.0000  -3.5415   0.0000   0.0000   0.0000   0.3046
  10.700   1.5473   0.03402   0.02540  -0.1117  0.1485  1.0000  -3.5897   0.0000   0.0000   0.0000   0.3038
  10.800   1.5452   0.03499   0.02632  -0.1107  0.1381  1.0000  -3.6308   0.0000   0.0000   0.0000   0.3031
  10.900   1.5418   0.03610   0.02735  -0.1097  0.1260  1.0000  -3.6650   0.0000   0.0000   0.0000   0.3024
  11.000   1.5374   0.03732   0.02848  -0.1086  0.1125  1.0000  -3.6939   0.0000   0.0000   0.0000   0.3017
  11.100   1.5294   0.03889   0.02992  -0.1074  0.0942  1.0000  -3.7037   0.0000   0.0000   0.0000   0.3011
  11.200   1.5192   0.04073   0.03161  -0.1062  0.0738  1.0000  -3.7010   0.0000   0.0000   0.0000   0.3006
  11.300   1.5092   0.04262   0.03336  -0.1051  0.0557  1.0000  -3.6985   0.0000   0.0000   0.0000   0.3001
  11.400   1.4995   0.04456   0.03519  -0.1041  0.0394  1.0000  -3.6964   0.0000   0.0000   0.0000   0.2997
  11.500   1.4902   0.04652   0.03707  -0.1032  0.0244  1.0000  -3.6956   0.0000   0.0000   0.0000   0.2993
  11.600   1.4819   0.04846   0.03894  -0.1025  0.0113  1.0000  -3.6990   0.0000   0.0000   0.0000   0.2990
  11.700   1.4763   0.05015   0.04061  -0.1019  0.0043  1.0000  -3.7179   0.0000   0.0000   0.0000   0.2987
  11.800   1.4773   0.05114   0.04164  -0.1015  0.0038  1.0000  -3.7727   0.0000   0.0000   0.0000   0.2982
  11.900   1.4785   0.05213   0.04266  -0.1012  0.0035  1.0000  -3.8289   0.0000   0.0000   0.0000   0.2977
  12.000   1.4794   0.05316   0.04373  -0.1009  0.0032  1.0000  -3.8844   0.0000   0.0000   0.0000   0.2972
  12.100   1.4805   0.05417   0.04480  -0.1006  0.0029  1.0000  -3.9401   0.0000   0.0000   0.0000   0.2968
  12.200   1.4818   0.05518   0.04587  -0.1003  0.0028  1.0000  -3.9967   0.0000   0.0000   0.0000   0.2963
  12.300   1.4829   0.05622   0.04695  -0.1001  0.0027  1.0000  -4.0531   0.0000   0.0000   0.0000   0.2959
  12.400   1.4840   0.05728   0.04807  -0.0998  0.0026  1.0000  -4.1088   0.0000   0.0000   0.0000   0.2955
  12.500   1.4853   0.05833   0.04915  -0.0996  0.0025  1.0000  -4.1673   0.0000   0.0000   0.0000   0.2951
  12.600   1.4866   0.05939   0.05026  -0.0994  0.0024  1.0000  -4.2265   0.0000   0.0000   0.0000   0.2947
  12.700   1.4877   0.06048   0.05141  -0.0993  0.0024  1.0000  -4.2850   0.0000   0.0000   0.0000   0.2943
  12.800   1.4888   0.06159   0.05257  -0.0991  0.0024  1.0000  -4.3435   0.0000   0.0000   0.0000   0.2940
  12.900   1.4898   0.06272   0.05376  -0.0990  0.0023  1.0000  -4.4018   0.0000   0.0000   0.0000   0.2936
  13.000   1.4906   0.06389   0.05499  -0.0989  0.0023  1.0000  -4.4591   0.0000   0.0000   0.0000   0.2933
  13.100   1.4914   0.06508   0.05624  -0.0988  0.0023  1.0000  -4.5164   0.0000   0.0000   0.0000   0.2930
  13.200   1.4921   0.06629   0.05750  -0.0988  0.0022  1.0000  -4.5737   0.0000   0.0000   0.0000   0.2927
  13.300   1.4926   0.06754   0.05881  -0.0987  0.0022  1.0000  -4.6296   0.0000   0.0000   0.0000   0.2924
  13.400   1.4931   0.06881   0.06013  -0.0987  0.0022  1.0000  -4.6855   0.0000   0.0000   0.0000   0.2922
  13.500   1.4935   0.07010   0.06148  -0.0987  0.0022  1.0000  -4.7410   0.0000   0.0000   0.0000   0.2919
  13.600   1.4937   0.07143   0.06288  -0.0987  0.0021  1.0000  -4.7952   0.0000   0.0000   0.0000   0.2917
  13.700   1.4939   0.07279   0.06429  -0.0988  0.0021  1.0000  -4.8494   0.0000   0.0000   0.0000   0.2915
  13.800   1.4940   0.07416   0.06572  -0.0988  0.0021  1.0000  -4.9031   0.0000   0.0000   0.0000   0.2914
  13.900   1.4939   0.07558   0.06722  -0.0989  0.0021  1.0000  -4.9559   0.0000   0.0000   0.0000   0.2912
  14.000   1.4939   0.07701   0.06871  -0.0991  0.0021  1.0000  -5.0084   0.0000   0.0000   0.0000   0.2911
  14.100   1.4936   0.07848   0.07024  -0.0992  0.0020  1.0000  -5.0598   0.0000   0.0000   0.0000   0.2910
  14.200   1.4933   0.07998   0.07180  -0.0994  0.0020  1.0000  -5.1101   0.0000   0.0000   0.0000   0.2909
  14.300   1.4929   0.08149   0.07338  -0.0996  0.0020  1.0000  -5.1605   0.0000   0.0000   0.0000   0.2908
  14.400   1.4923   0.08305   0.07500  -0.0998  0.0020  1.0000  -5.2093   0.0000   0.0000   0.0000   0.2908
  14.500   1.4917   0.08463   0.07664  -0.1001  0.0020  1.0000  -5.2576   0.0000   0.0000   0.0000   0.2907
  14.600   1.4911   0.08622   0.07829  -0.1003  0.0020  1.0000  -5.3057   0.0000   0.0000   0.0000   0.2907
  14.700   1.4903   0.08786   0.07999  -0.1007  0.0020  1.0000  -5.3521   0.0000   0.0000   0.0000   0.2907
  14.800   1.4895   0.08950   0.08170  -0.1010  0.0020  1.0000  -5.3984   0.0000   0.0000   0.0000   0.2908
  14.900   1.4886   0.09117   0.08343  -0.1013  0.0020  1.0000  -5.4437   0.0000   0.0000   0.0000   0.2908
  15.000   1.4875   0.09288   0.08520  -0.1017  0.0019  1.0000  -5.4878   0.0000   0.0000   0.0000   0.2909


