xflr5 v6.59

 Calculated polar for: SF-12

 1 1 Reynolds number fixed          Mach number fixed         

 xtrf =   1.000 (top)        1.000 (bottom)
 Mach =   0.050     Re =     0.100 e 6     Ncrit =   5.000

  alpha     CL        CD       CDp       Cm    Top Xtr Bot Xtr   Cpmin    Chinge    XCp    
 ------- -------- --------- --------- -------- ------- ------- -------- --------- ---------
  -3.000   0.2921   0.02144   0.01189  -0.1290  0.7378  0.1033  -1.5370   0.0000   0.0000   0.0000   0.6987
  -2.900   0.3038   0.02122   0.01158  -0.1290  0.7365  0.1062  -1.4967   0.0000   0.0000   0.0000   0.6812
  -2.800   0.3155   0.02111   0.01147  -0.1291  0.7352  0.1087  -1.4499   0.0000   0.0000   0.0000   0.6651
  -2.700   0.3237   0.02109   0.01145  -0.1286  0.7325  0.1116  -1.4134   0.0000   0.0000   0.0000   0.6530
  -2.600   0.3325   0.02102   0.01133  -0.1283  0.7299  0.1150  -1.3783   0.0000   0.0000   0.0000   0.6410
  -2.500   0.3417   0.02098   0.01131  -0.1280  0.7275  0.1175  -1.3370   0.0000   0.0000   0.0000   0.6293
  -2.400   0.3517   0.02090   0.01121  -0.1277  0.7253  0.1208  -1.2972   0.0000   0.0000   0.0000   0.6177
  -2.300   0.3621   0.02078   0.01104  -0.1276  0.7233  0.1245  -1.2583   0.0000   0.0000   0.0000   0.6064
  -2.200   0.3728   0.02070   0.01098  -0.1274  0.7214  0.1276  -1.2151   0.0000   0.0000   0.0000   0.5957
  -2.100   0.3839   0.02060   0.01083  -0.1274  0.7198  0.1318  -1.1738   0.0000   0.0000   0.0000   0.5852
  -2.000   0.3953   0.02049   0.01070  -0.1273  0.7182  0.1355  -1.1350   0.0000   0.0000   0.0000   0.5753
  -1.900   0.4069   0.02038   0.01057  -0.1273  0.7167  0.1395  -1.0966   0.0000   0.0000   0.0000   0.5658
  -1.800   0.4188   0.02026   0.01040  -0.1274  0.7154  0.1442  -1.0591   0.0000   0.0000   0.0000   0.5566
  -1.700   0.4296   0.02020   0.01035  -0.1273  0.7137  0.1481  -1.0217   0.0000   0.0000   0.0000   0.5485
  -1.600   0.4372   0.02024   0.01038  -0.1267  0.7107  0.1524  -0.9922   0.0000   0.0000   0.0000   0.5418
  -1.500   0.4459   0.02024   0.01040  -0.1263  0.7081  0.1560  -0.9595   0.0000   0.0000   0.0000   0.5351
  -1.400   0.4554   0.02022   0.01039  -0.1260  0.7058  0.1605  -0.9257   0.0000   0.0000   0.0000   0.5283
  -1.300   0.4655   0.02018   0.01033  -0.1258  0.7036  0.1653  -0.8916   0.0000   0.0000   0.0000   0.5216
  -1.200   0.4760   0.02012   0.01028  -0.1257  0.7016  0.1700  -0.8560   0.0000   0.0000   0.0000   0.5151
  -1.100   0.4870   0.02004   0.01017  -0.1256  0.6998  0.1753  -0.8426   0.0000   0.0000   0.0000   0.5087
  -1.000   0.4984   0.01996   0.01010  -0.1255  0.6982  0.1803  -0.8519   0.0000   0.0000   0.0000   0.5025
  -0.900   0.5101   0.01988   0.00998  -0.1255  0.6967  0.1864  -0.8616   0.0000   0.0000   0.0000   0.4965
  -0.800   0.5220   0.01979   0.00989  -0.1255  0.6953  0.1918  -0.8714   0.0000   0.0000   0.0000   0.4908
  -0.700   0.5335   0.01972   0.00979  -0.1255  0.6938  0.1978  -0.8809   0.0000   0.0000   0.0000   0.4853
  -0.600   0.5401   0.01981   0.00994  -0.1248  0.6905  0.2025  -0.8871   0.0000   0.0000   0.0000   0.4810
  -0.500   0.5485   0.01985   0.00999  -0.1244  0.6877  0.2084  -0.8947   0.0000   0.0000   0.0000   0.4764
  -0.400   0.5579   0.01984   0.01000  -0.1241  0.6852  0.2137  -0.9030   0.0000   0.0000   0.0000   0.4719
  -0.300   0.5680   0.01982   0.00997  -0.1239  0.6830  0.2203  -0.9120   0.0000   0.0000   0.0000   0.4674
  -0.200   0.5787   0.01977   0.00993  -0.1237  0.6810  0.2266  -0.9215   0.0000   0.0000   0.0000   0.4629
  -0.100   0.5899   0.01970   0.00986  -0.1236  0.6792  0.2337  -0.9316   0.0000   0.0000   0.0000   0.4586
   0.000   0.6014   0.01963   0.00978  -0.1236  0.6776  0.2411  -0.9420   0.0000   0.0000   0.0000   0.4543
   0.100   0.6133   0.01954   0.00969  -0.1236  0.6761  0.2487  -0.9527   0.0000   0.0000   0.0000   0.4502
   0.200   0.6255   0.01946   0.00958  -0.1237  0.6747  0.2573  -0.9637   0.0000   0.0000   0.0000   0.4462
   0.300   0.6331   0.01952   0.00969  -0.1231  0.6718  0.2643  -0.9715   0.0000   0.0000   0.0000   0.4428
   0.400   0.6406   0.01960   0.00980  -0.1225  0.6687  0.2718  -0.9792   0.0000   0.0000   0.0000   0.4395
   0.500   0.6495   0.01962   0.00984  -0.1222  0.6660  0.2807  -0.9880   0.0000   0.0000   0.0000   0.4361
   0.600   0.6594   0.01959   0.00985  -0.1219  0.6636  0.2900  -0.9976   0.0000   0.0000   0.0000   0.4328
   0.700   0.6701   0.01954   0.00980  -0.1218  0.6615  0.3008  -1.0080   0.0000   0.0000   0.0000   0.4295
   0.800   0.6814   0.01946   0.00974  -0.1218  0.6596  0.3132  -1.0191   0.0000   0.0000   0.0000   0.4262
   0.900   0.6933   0.01936   0.00966  -0.1218  0.6579  0.3279  -1.0307   0.0000   0.0000   0.0000   0.4231
   1.000   0.7055   0.01924   0.00956  -0.1219  0.6563  0.3462  -1.0426   0.0000   0.0000   0.0000   0.4201
   1.100   0.7180   0.01908   0.00947  -0.1221  0.6549  0.3712  -1.0547   0.0000   0.0000   0.0000   0.4172
   1.200   0.7236   0.01912   0.00966  -0.1213  0.6514  0.4012  -1.0617   0.0000   0.0000   0.0000   0.4146
   1.300   0.7297   0.01886   0.00982  -0.1206  0.6483  0.5033  -1.0694   0.0000   0.0000   0.0000   0.4120
   1.400   0.7503   0.01802   0.00983  -0.1219  0.6458  1.0000  -1.0877   0.0000   0.0000   0.0000   0.4092
   1.500   0.7602   0.01808   0.00983  -0.1217  0.6433  1.0000  -1.0983   0.0000   0.0000   0.0000   0.4066
   1.600   0.7711   0.01810   0.00979  -0.1215  0.6411  1.0000  -1.1097   0.0000   0.0000   0.0000   0.4040
   1.700   0.7826   0.01810   0.00972  -0.1215  0.6392  1.0000  -1.1220   0.0000   0.0000   0.0000   0.4014
   1.800   0.7947   0.01809   0.00963  -0.1215  0.6374  1.0000  -1.1349   0.0000   0.0000   0.0000   0.3990
   1.900   0.8072   0.01807   0.00954  -0.1216  0.6359  1.0000  -1.1482   0.0000   0.0000   0.0000   0.3966
   2.000   0.8133   0.01826   0.00974  -0.1208  0.6324  1.0000  -1.1561   0.0000   0.0000   0.0000   0.3944
   2.100   0.8203   0.01841   0.00988  -0.1201  0.6291  1.0000  -1.1649   0.0000   0.0000   0.0000   0.3921
   2.200   0.8291   0.01850   0.00994  -0.1197  0.6262  1.0000  -1.1755   0.0000   0.0000   0.0000   0.3899
   2.300   0.8391   0.01855   0.00995  -0.1195  0.6237  1.0000  -1.1873   0.0000   0.0000   0.0000   0.3878
   2.400   0.8501   0.01856   0.00991  -0.1193  0.6214  1.0000  -1.1999   0.0000   0.0000   0.0000   0.3856
   2.500   0.8619   0.01856   0.00985  -0.1193  0.6195  1.0000  -1.2132   0.0000   0.0000   0.0000   0.3836
   2.600   0.8742   0.01853   0.00976  -0.1194  0.6177  1.0000  -1.2271   0.0000   0.0000   0.0000   0.3816
   2.700   0.8830   0.01863   0.00984  -0.1190  0.6150  1.0000  -1.2383   0.0000   0.0000   0.0000   0.3796
   2.800   0.8886   0.01882   0.01005  -0.1181  0.6113  1.0000  -1.2469   0.0000   0.0000   0.0000   0.3776
   2.900   0.8967   0.01893   0.01015  -0.1176  0.6081  1.0000  -1.2575   0.0000   0.0000   0.0000   0.3757
   3.000   0.9063   0.01899   0.01018  -0.1173  0.6054  1.0000  -1.2696   0.0000   0.0000   0.0000   0.3738
   3.100   0.9171   0.01901   0.01016  -0.1171  0.6029  1.0000  -1.2827   0.0000   0.0000   0.0000   0.3720
   3.200   0.9288   0.01900   0.01011  -0.1171  0.6008  1.0000  -1.2970   0.0000   0.0000   0.0000   0.3703
   3.300   0.9411   0.01898   0.01003  -0.1172  0.5989  1.0000  -1.3121   0.0000   0.0000   0.0000   0.3686
   3.400   0.9485   0.01911   0.01017  -0.1166  0.5958  1.0000  -1.3228   0.0000   0.0000   0.0000   0.3668
   3.500   0.9542   0.01929   0.01041  -0.1157  0.5921  1.0000  -1.3320   0.0000   0.0000   0.0000   0.3650
   3.600   0.9624   0.01939   0.01050  -0.1152  0.5889  1.0000  -1.3434   0.0000   0.0000   0.0000   0.3633
   3.700   0.9721   0.01944   0.01053  -0.1149  0.5861  1.0000  -1.3566   0.0000   0.0000   0.0000   0.3617
   3.800   0.9831   0.01945   0.01051  -0.1148  0.5836  1.0000  -1.3711   0.0000   0.0000   0.0000   0.3601
   3.900   0.9950   0.01944   0.01045  -0.1148  0.5814  1.0000  -1.3865   0.0000   0.0000   0.0000   0.3586
   4.000   1.0062   0.01945   0.01043  -0.1148  0.5791  1.0000  -1.4013   0.0000   0.0000   0.0000   0.3571
   4.100   1.0102   0.01968   0.01070  -0.1136  0.5750  1.0000  -1.4095   0.0000   0.0000   0.0000   0.3554
   4.200   1.0173   0.01982   0.01085  -0.1130  0.5716  1.0000  -1.4209   0.0000   0.0000   0.0000   0.3538
   4.300   1.0263   0.01988   0.01090  -0.1126  0.5685  1.0000  -1.4343   0.0000   0.0000   0.0000   0.3523
   4.400   1.0368   0.01991   0.01090  -0.1124  0.5658  1.0000  -1.4491   0.0000   0.0000   0.0000   0.3509
   4.500   1.0485   0.01990   0.01086  -0.1124  0.5634  1.0000  -1.4651   0.0000   0.0000   0.0000   0.3495
   4.600   1.0595   0.01991   0.01087  -0.1123  0.5610  1.0000  -1.4805   0.0000   0.0000   0.0000   0.3482
   4.700   1.0633   0.02015   0.01114  -0.1111  0.5568  1.0000  -1.4893   0.0000   0.0000   0.0000   0.3466
   4.800   1.0701   0.02028   0.01129  -0.1104  0.5532  1.0000  -1.5012   0.0000   0.0000   0.0000   0.3451
   4.900   1.0790   0.02036   0.01136  -0.1100  0.5501  1.0000  -1.5153   0.0000   0.0000   0.0000   0.3437
   5.000   1.0895   0.02038   0.01136  -0.1098  0.5473  1.0000  -1.5309   0.0000   0.0000   0.0000   0.3424
   5.100   1.1014   0.02036   0.01131  -0.1099  0.5448  1.0000  -1.5480   0.0000   0.0000   0.0000   0.3412
   5.200   1.1087   0.02049   0.01144  -0.1092  0.5415  1.0000  -1.5606   0.0000   0.0000   0.0000   0.3399
   5.300   1.1134   0.02069   0.01168  -0.1082  0.5375  1.0000  -1.5711   0.0000   0.0000   0.0000   0.3384
   5.400   1.1206   0.02081   0.01180  -0.1075  0.5339  1.0000  -1.5842   0.0000   0.0000   0.0000   0.3370
   5.500   1.1298   0.02087   0.01185  -0.1072  0.5308  1.0000  -1.5994   0.0000   0.0000   0.0000   0.3358
   5.600   1.1410   0.02088   0.01183  -0.1071  0.5280  1.0000  -1.6165   0.0000   0.0000   0.0000   0.3346
   5.700   1.1514   0.02092   0.01184  -0.1069  0.5251  1.0000  -1.6329   0.0000   0.0000   0.0000   0.3335
   5.800   1.1545   0.02116   0.01213  -0.1056  0.5209  1.0000  -1.6425   0.0000   0.0000   0.0000   0.3320
   5.900   1.1605   0.02132   0.01233  -0.1048  0.5172  1.0000  -1.6550   0.0000   0.0000   0.0000   0.3306
   6.000   1.1688   0.02140   0.01241  -0.1043  0.5138  1.0000  -1.6700   0.0000   0.0000   0.0000   0.3294
   6.100   1.1793   0.02143   0.01241  -0.1041  0.5108  1.0000  -1.6874   0.0000   0.0000   0.0000   0.3283
   6.200   1.1902   0.02146   0.01241  -0.1040  0.5079  1.0000  -1.7051   0.0000   0.0000   0.0000   0.3273
   6.300   1.1924   0.02172   0.01272  -0.1026  0.5037  1.0000  -1.7143   0.0000   0.0000   0.0000   0.3258
   6.400   1.1977   0.02189   0.01291  -0.1017  0.4998  1.0000  -1.7267   0.0000   0.0000   0.0000   0.3245
   6.500   1.2053   0.02199   0.01301  -0.1011  0.4964  1.0000  -1.7419   0.0000   0.0000   0.0000   0.3233
   6.600   1.2156   0.02203   0.01302  -0.1009  0.4933  1.0000  -1.7599   0.0000   0.0000   0.0000   0.3223
   6.700   1.2245   0.02212   0.01309  -0.1005  0.4900  1.0000  -1.7763   0.0000   0.0000   0.0000   0.3212
   6.800   1.2264   0.02238   0.01339  -0.0991  0.4859  1.0000  -1.7855   0.0000   0.0000   0.0000   0.3198
   6.900   1.2307   0.02255   0.01358  -0.0980  0.4821  1.0000  -1.7978   0.0000   0.0000   0.0000   0.3184
   7.000   1.2378   0.02265   0.01368  -0.0973  0.4787  1.0000  -1.8132   0.0000   0.0000   0.0000   0.3173
   7.100   1.2482   0.02270   0.01370  -0.0971  0.4755  1.0000  -1.8323   0.0000   0.0000   0.0000   0.3163
   7.200   1.2528   0.02288   0.01391  -0.0961  0.4720  1.0000  -1.8448   0.0000   0.0000   0.0000   0.3150
   7.300   1.2539   0.02313   0.01420  -0.0945  0.4680  1.0000  -1.8536   0.0000   0.0000   0.0000   0.3135
   7.400   1.2582   0.02331   0.01439  -0.0934  0.4643  1.0000  -1.8666   0.0000   0.0000   0.0000   0.3123
   7.500   1.2659   0.02342   0.01449  -0.0928  0.4609  1.0000  -1.8834   0.0000   0.0000   0.0000   0.3112
   7.600   1.2767   0.02347   0.01450  -0.0927  0.4578  1.0000  -1.9039   0.0000   0.0000   0.0000   0.3103
   7.700   1.2772   0.02376   0.01484  -0.0911  0.4539  1.0000  -1.9124   0.0000   0.0000   0.0000   0.3089
   7.800   1.2793   0.02403   0.01513  -0.0898  0.4500  1.0000  -1.9228   0.0000   0.0000   0.0000   0.3076
   7.900   1.2844   0.02421   0.01532  -0.0889  0.4463  1.0000  -1.9373   0.0000   0.0000   0.0000   0.3064
   8.000   1.2929   0.02432   0.01541  -0.0884  0.4430  1.0000  -1.9560   0.0000   0.0000   0.0000   0.3055
   8.100   1.2997   0.02448   0.01555  -0.0878  0.4397  1.0000  -1.9727   0.0000   0.0000   0.0000   0.3045
   8.200   1.3000   0.02481   0.01594  -0.0863  0.4357  1.0000  -1.9815   0.0000   0.0000   0.0000   0.3031
   8.300   1.3032   0.02507   0.01622  -0.0851  0.4319  1.0000  -1.9938   0.0000   0.0000   0.0000   0.3019
   8.400   1.3095   0.02525   0.01639  -0.0844  0.4284  1.0000  -2.0106   0.0000   0.0000   0.0000   0.3009
   8.500   1.3189   0.02534   0.01645  -0.0842  0.4253  1.0000  -2.0315   0.0000   0.0000   0.0000   0.3001
   8.600   1.3203   0.02568   0.01685  -0.0829  0.4215  1.0000  -2.0422   0.0000   0.0000   0.0000   0.2989
   8.700   1.3220   0.02601   0.01722  -0.0816  0.4176  1.0000  -2.0531   0.0000   0.0000   0.0000   0.2977
   8.800   1.3263   0.02626   0.01749  -0.0807  0.4140  1.0000  -2.0680   0.0000   0.0000   0.0000   0.2967
   8.900   1.3337   0.02642   0.01763  -0.0802  0.4107  1.0000  -2.0874   0.0000   0.0000   0.0000   0.2958
   9.000   1.3400   0.02663   0.01783  -0.0796  0.4074  1.0000  -2.1052   0.0000   0.0000   0.0000   0.2948
   9.100   1.3404   0.02704   0.01829  -0.0783  0.4035  1.0000  -2.1152   0.0000   0.0000   0.0000   0.2937
   9.200   1.3432   0.02737   0.01864  -0.0772  0.3998  1.0000  -2.1291   0.0000   0.0000   0.0000   0.2926
   9.300   1.3487   0.02760   0.01887  -0.0765  0.3964  1.0000  -2.1470   0.0000   0.0000   0.0000   0.2917
   9.400   1.3574   0.02773   0.01898  -0.0762  0.3933  1.0000  -2.1700   0.0000   0.0000   0.0000   0.2909
   9.500   1.3582   0.02816   0.01945  -0.0750  0.3896  1.0000  -2.1819   0.0000   0.0000   0.0000   0.2898
   9.600   1.3598   0.02856   0.01990  -0.0739  0.3859  1.0000  -2.1956   0.0000   0.0000   0.0000   0.2888
   9.700   1.3637   0.02888   0.02023  -0.0731  0.3824  1.0000  -2.2138   0.0000   0.0000   0.0000   0.2879
   9.800   1.3704   0.02908   0.02042  -0.0726  0.3792  1.0000  -2.2513   0.0000   0.0000   0.0000   0.2870
   9.900   1.3755   0.02937   0.02071  -0.0719  0.3760  1.0000  -2.3221   0.0000   0.0000   0.0000   0.2862
  10.000   1.3760   0.02986   0.02125  -0.0708  0.3723  1.0000  -2.3714   0.0000   0.0000   0.0000   0.2852
  10.100   1.3785   0.03026   0.02171  -0.0699  0.3687  1.0000  -2.4318   0.0000   0.0000   0.0000   0.2842
  10.200   1.3835   0.03055   0.02200  -0.0692  0.3655  1.0000  -2.5039   0.0000   0.0000   0.0000   0.2834
  10.300   1.3914   0.03072   0.02214  -0.0688  0.3625  1.0000  -2.5909   0.0000   0.0000   0.0000   0.2826
  10.400   1.3917   0.03125   0.02273  -0.0678  0.3590  1.0000  -2.6407   0.0000   0.0000   0.0000   0.2817
  10.500   1.3930   0.03174   0.02327  -0.0668  0.3554  1.0000  -2.6960   0.0000   0.0000   0.0000   0.2808
  10.600   1.3964   0.03213   0.02368  -0.0661  0.3521  1.0000  -2.7620   0.0000   0.0000   0.0000   0.2799
  10.700   1.4024   0.03239   0.02393  -0.0655  0.3490  1.0000  -2.8418   0.0000   0.0000   0.0000   0.2792
  10.800   1.4071   0.03274   0.02428  -0.0649  0.3459  1.0000  -2.9151   0.0000   0.0000   0.0000   0.2784
  10.900   1.4072   0.03332   0.02493  -0.0639  0.3424  1.0000  -2.9656   0.0000   0.0000   0.0000   0.2775
  11.000   1.4092   0.03381   0.02546  -0.0631  0.3390  1.0000  -3.0263   0.0000   0.0000   0.0000   0.2767
  11.100   1.4134   0.03418   0.02583  -0.0625  0.3359  1.0000  -3.0990   0.0000   0.0000   0.0000   0.2759
  11.200   1.4206   0.03440   0.02603  -0.0621  0.3331  1.0000  -3.1874   0.0000   0.0000   0.0000   0.2752
  11.300   1.4209   0.03501   0.02670  -0.0612  0.3297  1.0000  -3.2399   0.0000   0.0000   0.0000   0.2744
  11.400   1.4217   0.03560   0.02735  -0.0603  0.3263  1.0000  -3.2952   0.0000   0.0000   0.0000   0.2736
  11.500   1.4239   0.03610   0.02787  -0.0596  0.3229  1.0000  -3.3589   0.0000   0.0000   0.0000   0.2728
  11.600   1.4286   0.03643   0.02819  -0.0590  0.3194  1.0000  -3.4363   0.0000   0.0000   0.0000   0.2721
  11.700   1.4287   0.03706   0.02886  -0.0582  0.3157  1.0000  -3.4894   0.0000   0.0000   0.0000   0.2713
  11.800   1.4274   0.03778   0.02963  -0.0573  0.3116  1.0000  -3.5350   0.0000   0.0000   0.0000   0.2705
  11.900   1.4284   0.03834   0.03019  -0.0565  0.3075  1.0000  -3.5942   0.0000   0.0000   0.0000   0.2697
  12.000   1.4308   0.03881   0.03063  -0.0558  0.3034  1.0000  -3.6613   0.0000   0.0000   0.0000   0.2690
  12.100   1.4280   0.03969   0.03158  -0.0550  0.2992  1.0000  -3.6986   0.0000   0.0000   0.0000   0.2682
  12.200   1.4272   0.04040   0.03232  -0.0542  0.2949  1.0000  -3.7481   0.0000   0.0000   0.0000   0.2675
  12.300   1.4295   0.04087   0.03273  -0.0535  0.2906  1.0000  -3.8164   0.0000   0.0000   0.0000   0.2668
  12.400   1.4262   0.04185   0.03378  -0.0527  0.2863  1.0000  -3.8508   0.0000   0.0000   0.0000   0.2661
  12.500   1.4247   0.04267   0.03462  -0.0520  0.2819  1.0000  -3.8966   0.0000   0.0000   0.0000   0.2654
  12.600   1.4259   0.04326   0.03517  -0.0514  0.2775  1.0000  -3.9586   0.0000   0.0000   0.0000   0.2647
  12.700   1.4229   0.04427   0.03624  -0.0507  0.2731  1.0000  -3.9950   0.0000   0.0000   0.0000   0.2641
  12.800   1.4212   0.04516   0.03716  -0.0500  0.2687  1.0000  -4.0394   0.0000   0.0000   0.0000   0.2635
  12.900   1.4216   0.04585   0.03781  -0.0495  0.2644  1.0000  -4.0973   0.0000   0.0000   0.0000   0.2629
  13.000   1.4188   0.04693   0.03895  -0.0489  0.2600  1.0000  -4.1340   0.0000   0.0000   0.0000   0.2623
  13.100   1.4171   0.04788   0.03993  -0.0484  0.2556  1.0000  -4.1786   0.0000   0.0000   0.0000   0.2618
  13.200   1.4171   0.04867   0.04068  -0.0478  0.2513  1.0000  -4.2336   0.0000   0.0000   0.0000   0.2612
  13.300   1.4144   0.04981   0.04189  -0.0474  0.2470  1.0000  -4.2708   0.0000   0.0000   0.0000   0.2607
  13.400   1.4128   0.05082   0.04292  -0.0470  0.2427  1.0000  -4.3159   0.0000   0.0000   0.0000   0.2602
  13.500   1.4123   0.05172   0.04379  -0.0465  0.2386  1.0000  -4.3676   0.0000   0.0000   0.0000   0.2597
  13.600   1.4099   0.05289   0.04504  -0.0462  0.2344  1.0000  -4.4063   0.0000   0.0000   0.0000   0.2593
  13.700   1.4085   0.05396   0.04614  -0.0458  0.2303  1.0000  -4.4518   0.0000   0.0000   0.0000   0.2589
  13.800   1.4079   0.05493   0.04709  -0.0455  0.2265  1.0000  -4.5027   0.0000   0.0000   0.0000   0.2584
  13.900   1.4059   0.05614   0.04837  -0.0452  0.2226  1.0000  -4.5431   0.0000   0.0000   0.0000   0.2581
  14.000   1.4047   0.05725   0.04951  -0.0450  0.2187  1.0000  -4.5892   0.0000   0.0000   0.0000   0.2577
  14.100   1.4044   0.05824   0.05049  -0.0447  0.2153  1.0000  -4.6415   0.0000   0.0000   0.0000   0.2573
  14.200   1.4029   0.05946   0.05178  -0.0446  0.2117  1.0000  -4.6845   0.0000   0.0000   0.0000   0.2570
  14.300   1.4020   0.06061   0.05297  -0.0444  0.2083  1.0000  -4.7314   0.0000   0.0000   0.0000   0.2567
  14.400   1.4016   0.06168   0.05406  -0.0442  0.2051  1.0000  -4.7820   0.0000   0.0000   0.0000   0.2564
  14.500   1.4008   0.06285   0.05526  -0.0441  0.2020  1.0000  -4.8295   0.0000   0.0000   0.0000   0.2561
  14.600   1.3995   0.06410   0.05657  -0.0440  0.1986  1.0000  -4.8735   0.0000   0.0000   0.0000   0.2558
  14.700   1.3983   0.06532   0.05782  -0.0439  0.1951  1.0000  -4.9184   0.0000   0.0000   0.0000   0.2556
  14.800   1.3969   0.06659   0.05910  -0.0439  0.1918  1.0000  -4.9617   0.0000   0.0000   0.0000   0.2553
  14.900   1.3947   0.06802   0.06058  -0.0439  0.1879  1.0000  -4.9993   0.0000   0.0000   0.0000   0.2552
  15.000   1.3925   0.06942   0.06200  -0.0439  0.1841  1.0000  -5.0376   0.0000   0.0000   0.0000   0.2550


