xflr5 v6.59

 Calculated polar for: SF-16

 1 1 Reynolds number fixed          Mach number fixed         

 xtrf =   1.000 (top)        1.000 (bottom)
 Mach =   0.050     Re =     0.230 e 6     Ncrit =   5.000

  alpha     CL        CD       CDp       Cm    Top Xtr Bot Xtr   Cpmin    Chinge    XCp    
 ------- -------- --------- --------- -------- ------- ------- -------- --------- ---------
  -3.000   0.5792   0.01444   0.00679  -0.1873  0.6773  0.0382  -2.0666   0.0000   0.0000   0.0000   0.5775
  -2.900   0.5904   0.01433   0.00666  -0.1873  0.6748  0.0393  -2.0007   0.0000   0.0000   0.0000   0.5711
  -2.800   0.6018   0.01420   0.00649  -0.1873  0.6725  0.0404  -1.9384   0.0000   0.0000   0.0000   0.5649
  -2.700   0.6132   0.01408   0.00630  -0.1873  0.6703  0.0418  -1.8784   0.0000   0.0000   0.0000   0.5589
  -2.600   0.6246   0.01396   0.00609  -0.1874  0.6683  0.0431  -1.8199   0.0000   0.0000   0.0000   0.5530
  -2.500   0.6360   0.01386   0.00598  -0.1874  0.6662  0.0445  -1.7541   0.0000   0.0000   0.0000   0.5475
  -2.400   0.6471   0.01379   0.00592  -0.1874  0.6637  0.0463  -1.6890   0.0000   0.0000   0.0000   0.5423
  -2.300   0.6582   0.01371   0.00581  -0.1874  0.6611  0.0484  -1.6275   0.0000   0.0000   0.0000   0.5371
  -2.200   0.6694   0.01362   0.00569  -0.1874  0.6585  0.0503  -1.5664   0.0000   0.0000   0.0000   0.5321
  -2.100   0.6806   0.01355   0.00561  -0.1874  0.6561  0.0522  -1.5034   0.0000   0.0000   0.0000   0.5273
  -2.000   0.6918   0.01348   0.00550  -0.1874  0.6537  0.0543  -1.4430   0.0000   0.0000   0.0000   0.5226
  -1.900   0.7031   0.01341   0.00538  -0.1874  0.6515  0.0565  -1.3840   0.0000   0.0000   0.0000   0.5180
  -1.800   0.7143   0.01336   0.00531  -0.1874  0.6494  0.0589  -1.3213   0.0000   0.0000   0.0000   0.5137
  -1.700   0.7254   0.01331   0.00524  -0.1874  0.6470  0.0620  -1.2614   0.0000   0.0000   0.0000   0.5094
  -1.600   0.7365   0.01325   0.00518  -0.1874  0.6444  0.0648  -1.2026   0.0000   0.0000   0.0000   0.5053
  -1.500   0.7475   0.01321   0.00513  -0.1874  0.6417  0.0679  -1.1509   0.0000   0.0000   0.0000   0.5013
  -1.400   0.7585   0.01316   0.00506  -0.1873  0.6391  0.0712  -1.1010   0.0000   0.0000   0.0000   0.4974
  -1.300   0.7696   0.01312   0.00501  -0.1873  0.6366  0.0748  -1.0657   0.0000   0.0000   0.0000   0.4937
  -1.200   0.7807   0.01309   0.00494  -0.1872  0.6342  0.0791  -1.0762   0.0000   0.0000   0.0000   0.4900
  -1.100   0.7918   0.01306   0.00489  -0.1872  0.6320  0.0834  -1.0871   0.0000   0.0000   0.0000   0.4864
  -1.000   0.8028   0.01303   0.00485  -0.1872  0.6296  0.0880  -1.0978   0.0000   0.0000   0.0000   0.4829
  -0.900   0.8137   0.01300   0.00483  -0.1871  0.6269  0.0931  -1.1084   0.0000   0.0000   0.0000   0.4796
  -0.800   0.8245   0.01297   0.00481  -0.1871  0.6241  0.0985  -1.1192   0.0000   0.0000   0.0000   0.4763
  -0.700   0.8354   0.01295   0.00479  -0.1870  0.6213  0.1045  -1.1303   0.0000   0.0000   0.0000   0.4731
  -0.600   0.8463   0.01294   0.00476  -0.1870  0.6187  0.1110  -1.1415   0.0000   0.0000   0.0000   0.4700
  -0.500   0.8572   0.01292   0.00473  -0.1869  0.6163  0.1179  -1.1528   0.0000   0.0000   0.0000   0.4669
  -0.400   0.8682   0.01291   0.00470  -0.1869  0.6140  0.1255  -1.1641   0.0000   0.0000   0.0000   0.4639
  -0.300   0.8790   0.01290   0.00470  -0.1868  0.6113  0.1335  -1.1755   0.0000   0.0000   0.0000   0.4610
  -0.200   0.8897   0.01289   0.00471  -0.1867  0.6085  0.1423  -1.1871   0.0000   0.0000   0.0000   0.4582
  -0.100   0.9004   0.01288   0.00471  -0.1867  0.6057  0.1517  -1.1987   0.0000   0.0000   0.0000   0.4555
   0.000   0.9111   0.01288   0.00471  -0.1866  0.6029  0.1616  -1.2103   0.0000   0.0000   0.0000   0.4528
   0.100   0.9219   0.01288   0.00471  -0.1865  0.6003  0.1724  -1.2220   0.0000   0.0000   0.0000   0.4502
   0.200   0.9326   0.01288   0.00471  -0.1864  0.5979  0.1839  -1.2342   0.0000   0.0000   0.0000   0.4476
   0.300   0.9433   0.01288   0.00472  -0.1864  0.5954  0.1959  -1.2464   0.0000   0.0000   0.0000   0.4451
   0.400   0.9539   0.01288   0.00475  -0.1863  0.5926  0.2086  -1.2584   0.0000   0.0000   0.0000   0.4426
   0.500   0.9645   0.01288   0.00477  -0.1862  0.5897  0.2222  -1.2705   0.0000   0.0000   0.0000   0.4402
   0.600   0.9750   0.01288   0.00479  -0.1861  0.5869  0.2366  -1.2827   0.0000   0.0000   0.0000   0.4379
   0.700   0.9856   0.01289   0.00480  -0.1860  0.5841  0.2518  -1.2953   0.0000   0.0000   0.0000   0.4356
   0.800   0.9961   0.01290   0.00482  -0.1858  0.5816  0.2677  -1.3080   0.0000   0.0000   0.0000   0.4333
   0.900   1.0067   0.01292   0.00484  -0.1858  0.5791  0.2848  -1.3207   0.0000   0.0000   0.0000   0.4311
   1.000   1.0171   0.01292   0.00489  -0.1856  0.5763  0.3030  -1.3333   0.0000   0.0000   0.0000   0.4289
   1.100   1.0275   0.01292   0.00494  -0.1855  0.5733  0.3223  -1.3458   0.0000   0.0000   0.0000   0.4268
   1.200   1.0378   0.01292   0.00498  -0.1854  0.5704  0.3434  -1.3589   0.0000   0.0000   0.0000   0.4247
   1.300   1.0481   0.01293   0.00502  -0.1852  0.5676  0.3662  -1.3720   0.0000   0.0000   0.0000   0.4227
   1.400   1.0583   0.01294   0.00506  -0.1851  0.5649  0.3917  -1.3852   0.0000   0.0000   0.0000   0.4207
   1.500   1.0686   0.01295   0.00510  -0.1849  0.5624  0.4199  -1.3984   0.0000   0.0000   0.0000   0.4187
   1.600   1.0788   0.01294   0.00517  -0.1848  0.5594  0.4513  -1.4114   0.0000   0.0000   0.0000   0.4168
   1.700   1.0888   0.01293   0.00524  -0.1846  0.5564  0.4864  -1.4246   0.0000   0.0000   0.0000   0.4148
   1.800   1.0987   0.01291   0.00530  -0.1844  0.5535  0.5267  -1.4381   0.0000   0.0000   0.0000   0.4130
   1.900   1.1083   0.01289   0.00536  -0.1841  0.5506  0.5734  -1.4514   0.0000   0.0000   0.0000   0.4111
   2.100   1.1255   0.01265   0.00544  -0.1830  0.5454  0.7401  -1.4766   0.0000   0.0000   0.0000   0.4073
   2.200   1.1346   0.01243   0.00542  -0.1824  0.5424  1.0000  -1.4896   0.0000   0.0000   0.0000   0.4053
   2.300   1.1447   0.01250   0.00546  -0.1822  0.5393  1.0000  -1.5036   0.0000   0.0000   0.0000   0.4036
   2.400   1.1546   0.01258   0.00549  -0.1820  0.5362  1.0000  -1.5178   0.0000   0.0000   0.0000   0.4018
   2.500   1.1646   0.01266   0.00553  -0.1818  0.5333  1.0000  -1.5321   0.0000   0.0000   0.0000   0.4002
   2.600   1.1745   0.01275   0.00556  -0.1816  0.5306  1.0000  -1.5463   0.0000   0.0000   0.0000   0.3985
   2.700   1.1844   0.01282   0.00562  -0.1814  0.5275  1.0000  -1.5606   0.0000   0.0000   0.0000   0.3968
   2.800   1.1942   0.01289   0.00567  -0.1811  0.5243  1.0000  -1.5748   0.0000   0.0000   0.0000   0.3952
   2.900   1.2039   0.01297   0.00572  -0.1809  0.5212  1.0000  -1.5890   0.0000   0.0000   0.0000   0.3936
   3.000   1.2136   0.01306   0.00577  -0.1806  0.5181  1.0000  -1.6038   0.0000   0.0000   0.0000   0.3921
   3.100   1.2231   0.01316   0.00582  -0.1803  0.5152  1.0000  -1.6185   0.0000   0.0000   0.0000   0.3905
   3.200   1.2328   0.01324   0.00588  -0.1800  0.5122  1.0000  -1.6333   0.0000   0.0000   0.0000   0.3890
   3.300   1.2424   0.01332   0.00595  -0.1798  0.5089  1.0000  -1.6481   0.0000   0.0000   0.0000   0.3875
   3.400   1.2518   0.01341   0.00601  -0.1795  0.5057  1.0000  -1.6628   0.0000   0.0000   0.0000   0.3860
   3.500   1.2611   0.01350   0.00610  -0.1792  0.5025  1.0000  -1.6774   0.0000   0.0000   0.0000   0.3845
   3.600   1.2703   0.01360   0.00616  -0.1788  0.4995  1.0000  -1.6921   0.0000   0.0000   0.0000   0.3831
   3.700   1.2796   0.01369   0.00623  -0.1785  0.4964  1.0000  -1.7074   0.0000   0.0000   0.0000   0.3816
   3.800   1.2889   0.01378   0.00631  -0.1782  0.4930  1.0000  -1.7227   0.0000   0.0000   0.0000   0.3802
   3.900   1.2980   0.01388   0.00639  -0.1778  0.4897  1.0000  -1.7379   0.0000   0.0000   0.0000   0.3788
   4.000   1.3069   0.01398   0.00646  -0.1775  0.4865  1.0000  -1.7529   0.0000   0.0000   0.0000   0.3774
   4.100   1.3157   0.01409   0.00654  -0.1770  0.4835  1.0000  -1.7679   0.0000   0.0000   0.0000   0.3761
   4.200   1.3247   0.01419   0.00662  -0.1767  0.4802  1.0000  -1.7831   0.0000   0.0000   0.0000   0.3747
   4.300   1.3336   0.01428   0.00671  -0.1763  0.4767  1.0000  -1.7981   0.0000   0.0000   0.0000   0.3734
   4.400   1.3422   0.01439   0.00680  -0.1759  0.4733  1.0000  -1.8135   0.0000   0.0000   0.0000   0.3720
   4.500   1.3506   0.01451   0.00689  -0.1754  0.4700  1.0000  -1.8289   0.0000   0.0000   0.0000   0.3707
   4.600   1.3590   0.01462   0.00700  -0.1749  0.4670  1.0000  -1.8443   0.0000   0.0000   0.0000   0.3694
   4.700   1.3677   0.01472   0.00710  -0.1745  0.4636  1.0000  -1.8599   0.0000   0.0000   0.0000   0.3681
   4.800   1.3760   0.01483   0.00720  -0.1740  0.4600  1.0000  -1.8752   0.0000   0.0000   0.0000   0.3668
   4.900   1.3840   0.01495   0.00730  -0.1735  0.4565  1.0000  -1.8904   0.0000   0.0000   0.0000   0.3656
   5.000   1.3917   0.01508   0.00740  -0.1729  0.4534  1.0000  -1.9053   0.0000   0.0000   0.0000   0.3643
   5.100   1.3999   0.01520   0.00751  -0.1724  0.4501  1.0000  -1.9205   0.0000   0.0000   0.0000   0.3630
   5.200   1.4079   0.01531   0.00762  -0.1719  0.4465  1.0000  -1.9356   0.0000   0.0000   0.0000   0.3618
   5.300   1.4155   0.01543   0.00773  -0.1713  0.4430  1.0000  -1.9511   0.0000   0.0000   0.0000   0.3606
   5.400   1.4227   0.01557   0.00784  -0.1706  0.4397  1.0000  -1.9663   0.0000   0.0000   0.0000   0.3593
   5.500   1.4299   0.01571   0.00796  -0.1700  0.4365  1.0000  -1.9815   0.0000   0.0000   0.0000   0.3581
   5.600   1.4375   0.01582   0.00809  -0.1694  0.4329  1.0000  -1.9969   0.0000   0.0000   0.0000   0.3569
   5.700   1.4445   0.01596   0.00821  -0.1687  0.4294  1.0000  -2.0119   0.0000   0.0000   0.0000   0.3556
   5.800   1.4509   0.01610   0.00836  -0.1679  0.4260  1.0000  -2.0263   0.0000   0.0000   0.0000   0.3544
   5.900   1.4564   0.01625   0.00848  -0.1669  0.4230  1.0000  -2.0399   0.0000   0.0000   0.0000   0.3531
   6.000   1.4628   0.01637   0.00861  -0.1661  0.4196  1.0000  -2.0543   0.0000   0.0000   0.0000   0.3519
   6.100   1.4686   0.01651   0.00875  -0.1651  0.4162  1.0000  -2.0681   0.0000   0.0000   0.0000   0.3507
   6.200   1.4738   0.01666   0.00889  -0.1641  0.4128  1.0000  -2.0813   0.0000   0.0000   0.0000   0.3494
   6.300   1.4787   0.01682   0.00903  -0.1631  0.4096  1.0000  -2.0946   0.0000   0.0000   0.0000   0.3481
   6.400   1.4845   0.01697   0.00918  -0.1622  0.4064  1.0000  -2.1091   0.0000   0.0000   0.0000   0.3469
   6.500   1.4904   0.01712   0.00934  -0.1613  0.4030  1.0000  -2.1237   0.0000   0.0000   0.0000   0.3457
   6.600   1.4958   0.01729   0.00950  -0.1604  0.3996  1.0000  -2.1379   0.0000   0.0000   0.0000   0.3446
   6.700   1.5007   0.01747   0.00967  -0.1593  0.3964  1.0000  -2.1515   0.0000   0.0000   0.0000   0.3434
   6.800   1.5056   0.01766   0.00984  -0.1583  0.3934  1.0000  -2.1651   0.0000   0.0000   0.0000   0.3422
   6.900   1.5112   0.01782   0.01002  -0.1575  0.3900  1.0000  -2.1795   0.0000   0.0000   0.0000   0.3410
   7.000   1.5162   0.01801   0.01020  -0.1565  0.3866  1.0000  -2.1932   0.0000   0.0000   0.0000   0.3399
   7.100   1.5198   0.01823   0.01043  -0.1553  0.3824  1.0000  -2.2054   0.0000   0.0000   0.0000   0.3387
   7.200   1.5224   0.01848   0.01065  -0.1540  0.3764  1.0000  -2.2167   0.0000   0.0000   0.0000   0.3374
   7.300   1.5231   0.01878   0.01092  -0.1523  0.3689  1.0000  -2.2260   0.0000   0.0000   0.0000   0.3361
   7.400   1.5235   0.01911   0.01120  -0.1507  0.3606  1.0000  -2.2348   0.0000   0.0000   0.0000   0.3349
   7.500   1.5223   0.01951   0.01153  -0.1489  0.3522  1.0000  -2.2419   0.0000   0.0000   0.0000   0.3336
   7.600   1.5219   0.01990   0.01187  -0.1472  0.3422  1.0000  -2.2499   0.0000   0.0000   0.0000   0.3323
   7.700   1.5209   0.02034   0.01225  -0.1455  0.3326  1.0000  -2.2571   0.0000   0.0000   0.0000   0.3311
   7.800   1.5195   0.02082   0.01267  -0.1438  0.3233  1.0000  -2.2642   0.0000   0.0000   0.0000   0.3299
   7.900   1.5182   0.02131   0.01310  -0.1422  0.3139  1.0000  -2.2715   0.0000   0.0000   0.0000   0.3287
   8.000   1.5181   0.02179   0.01353  -0.1407  0.3048  1.0000  -2.2800   0.0000   0.0000   0.0000   0.3275
   8.100   1.5180   0.02228   0.01397  -0.1393  0.2975  1.0000  -2.2885   0.0000   0.0000   0.0000   0.3264
   8.200   1.5206   0.02267   0.01435  -0.1383  0.2919  1.0000  -2.2999   0.0000   0.0000   0.0000   0.3254
   8.300   1.5230   0.02308   0.01474  -0.1372  0.2878  1.0000  -2.3111   0.0000   0.0000   0.0000   0.3244
   8.400   1.5264   0.02345   0.01510  -0.1363  0.2839  1.0000  -2.3234   0.0000   0.0000   0.0000   0.3234
   8.500   1.5299   0.02382   0.01547  -0.1354  0.2796  1.0000  -2.3359   0.0000   0.0000   0.0000   0.3225
   8.600   1.5323   0.02425   0.01589  -0.1345  0.2757  1.0000  -2.3471   0.0000   0.0000   0.0000   0.3215
   8.700   1.5352   0.02466   0.01630  -0.1335  0.2720  1.0000  -2.3587   0.0000   0.0000   0.0000   0.3205
   8.800   1.5385   0.02507   0.01673  -0.1327  0.2676  1.0000  -2.3709   0.0000   0.0000   0.0000   0.3196
   8.900   1.5410   0.02552   0.01717  -0.1318  0.2636  1.0000  -2.3821   0.0000   0.0000   0.0000   0.3187
   9.000   1.5435   0.02599   0.01763  -0.1309  0.2601  1.0000  -2.3932   0.0000   0.0000   0.0000   0.3178
   9.100   1.5470   0.02641   0.01806  -0.1301  0.2562  1.0000  -2.4056   0.0000   0.0000   0.0000   0.3169
   9.200   1.5498   0.02687   0.01852  -0.1293  0.2524  1.0000  -2.4171   0.0000   0.0000   0.0000   0.3160
   9.300   1.5519   0.02738   0.01903  -0.1284  0.2490  1.0000  -2.4277   0.0000   0.0000   0.0000   0.3151
   9.400   1.5555   0.02782   0.01948  -0.1276  0.2455  1.0000  -2.4400   0.0000   0.0000   0.0000   0.3142
   9.500   1.5564   0.02842   0.02006  -0.1267  0.2396  1.0000  -2.4491   0.0000   0.0000   0.0000   0.3134
   9.600   1.5559   0.02914   0.02074  -0.1256  0.2319  1.0000  -2.4567   0.0000   0.0000   0.0000   0.3125
   9.700   1.5538   0.02998   0.02152  -0.1245  0.2233  1.0000  -2.4625   0.0000   0.0000   0.0000   0.3117
   9.800   1.5514   0.03086   0.02235  -0.1233  0.2137  1.0000  -2.4680   0.0000   0.0000   0.0000   0.3109
   9.900   1.5494   0.03175   0.02319  -0.1223  0.2038  1.0000  -2.4738   0.0000   0.0000   0.0000   0.3101
  10.000   1.5478   0.03263   0.02402  -0.1213  0.1951  1.0000  -2.4800   0.0000   0.0000   0.0000   0.3093
  10.100   1.5479   0.03341   0.02477  -0.1204  0.1895  1.0000  -2.4884   0.0000   0.0000   0.0000   0.3086
  10.200   1.5492   0.03410   0.02545  -0.1197  0.1840  1.0000  -2.4983   0.0000   0.0000   0.0000   0.3078
  10.300   1.5495   0.03489   0.02623  -0.1189  0.1789  1.0000  -2.5067   0.0000   0.0000   0.0000   0.3071
  10.400   1.5506   0.03562   0.02695  -0.1182  0.1734  1.0000  -2.5163   0.0000   0.0000   0.0000   0.3064
  10.500   1.5508   0.03645   0.02776  -0.1175  0.1682  1.0000  -2.5246   0.0000   0.0000   0.0000   0.3057
  10.600   1.5518   0.03722   0.02854  -0.1168  0.1629  1.0000  -2.5340   0.0000   0.0000   0.0000   0.3051
  10.700   1.5518   0.03810   0.02940  -0.1162  0.1575  1.0000  -2.5604   0.0000   0.0000   0.0000   0.3044
  10.800   1.5499   0.03914   0.03041  -0.1154  0.1489  1.0000  -2.5970   0.0000   0.0000   0.0000   0.3038
  10.900   1.5456   0.04044   0.03164  -0.1145  0.1378  1.0000  -2.6222   0.0000   0.0000   0.0000   0.3032
  11.000   1.5382   0.04206   0.03316  -0.1136  0.1223  1.0000  -2.6336   0.0000   0.0000   0.0000   0.3028
  11.100   1.5278   0.04402   0.03498  -0.1126  0.1034  1.0000  -2.6312   0.0000   0.0000   0.0000   0.3024
  11.200   1.5176   0.04603   0.03688  -0.1117  0.0843  1.0000  -2.6288   0.0000   0.0000   0.0000   0.3021
  11.300   1.5076   0.04810   0.03884  -0.1109  0.0665  1.0000  -2.6263   0.0000   0.0000   0.0000   0.3018
  11.400   1.4978   0.05021   0.04087  -0.1102  0.0499  1.0000  -2.6239   0.0000   0.0000   0.0000   0.3016
  11.500   1.4883   0.05237   0.04296  -0.1095  0.0334  1.0000  -2.6221   0.0000   0.0000   0.0000   0.3015
  11.600   1.4793   0.05454   0.04509  -0.1090  0.0175  1.0000  -2.6218   0.0000   0.0000   0.0000   0.3014
  11.700   1.4721   0.05656   0.04708  -0.1086  0.0044  1.0000  -2.6297   0.0000   0.0000   0.0000   0.3012
  11.800   1.4723   0.05774   0.04829  -0.1084  0.0033  1.0000  -2.6731   0.0000   0.0000   0.0000   0.3009
  11.900   1.4736   0.05879   0.04937  -0.1082  0.0028  1.0000  -2.7226   0.0000   0.0000   0.0000   0.3004
  12.000   1.4753   0.05979   0.05041  -0.1080  0.0025  1.0000  -2.7738   0.0000   0.0000   0.0000   0.3000
  12.100   1.4772   0.06079   0.05144  -0.1078  0.0024  1.0000  -2.8266   0.0000   0.0000   0.0000   0.2996
  12.200   1.4791   0.06179   0.05249  -0.1077  0.0024  1.0000  -2.8803   0.0000   0.0000   0.0000   0.2992
  12.300   1.4810   0.06280   0.05354  -0.1076  0.0023  1.0000  -2.9345   0.0000   0.0000   0.0000   0.2988
  12.400   1.4827   0.06385   0.05463  -0.1075  0.0022  1.0000  -2.9879   0.0000   0.0000   0.0000   0.2984
  12.500   1.4843   0.06493   0.05575  -0.1074  0.0022  1.0000  -3.0412   0.0000   0.0000   0.0000   0.2980
  12.600   1.4859   0.06601   0.05688  -0.1073  0.0021  1.0000  -3.0948   0.0000   0.0000   0.0000   0.2977
  12.700   1.4874   0.06710   0.05801  -0.1072  0.0021  1.0000  -3.1486   0.0000   0.0000   0.0000   0.2973
  12.800   1.4888   0.06823   0.05920  -0.1071  0.0021  1.0000  -3.2017   0.0000   0.0000   0.0000   0.2970
  12.900   1.4901   0.06939   0.06040  -0.1071  0.0020  1.0000  -3.2547   0.0000   0.0000   0.0000   0.2967
  13.000   1.4914   0.07054   0.06160  -0.1071  0.0020  1.0000  -3.3079   0.0000   0.0000   0.0000   0.2964
  13.100   1.4925   0.07174   0.06286  -0.1071  0.0020  1.0000  -3.3600   0.0000   0.0000   0.0000   0.2961
  13.200   1.4935   0.07297   0.06414  -0.1071  0.0019  1.0000  -3.4114   0.0000   0.0000   0.0000   0.2959
  13.300   1.4944   0.07421   0.06543  -0.1071  0.0019  1.0000  -3.4631   0.0000   0.0000   0.0000   0.2956
  13.400   1.4953   0.07547   0.06674  -0.1071  0.0019  1.0000  -3.5152   0.0000   0.0000   0.0000   0.2954
  13.500   1.4960   0.07677   0.06809  -0.1072  0.0019  1.0000  -3.5659   0.0000   0.0000   0.0000   0.2952
  13.600   1.4966   0.07809   0.06947  -0.1073  0.0019  1.0000  -3.6165   0.0000   0.0000   0.0000   0.2950
  13.700   1.4973   0.07942   0.07084  -0.1074  0.0018  1.0000  -3.6675   0.0000   0.0000   0.0000   0.2948
  13.800   1.4977   0.08079   0.07227  -0.1075  0.0018  1.0000  -3.7174   0.0000   0.0000   0.0000   0.2946
  13.900   1.4980   0.08219   0.07373  -0.1077  0.0018  1.0000  -3.7663   0.0000   0.0000   0.0000   0.2945
  14.000   1.4983   0.08360   0.07519  -0.1078  0.0018  1.0000  -3.8155   0.0000   0.0000   0.0000   0.2943
  14.100   1.4985   0.08503   0.07668  -0.1080  0.0018  1.0000  -3.8641   0.0000   0.0000   0.0000   0.2942
  14.200   1.4984   0.08652   0.07821  -0.1082  0.0018  1.0000  -3.9113   0.0000   0.0000   0.0000   0.2941
  14.300   1.4985   0.08800   0.07975  -0.1084  0.0018  1.0000  -3.9589   0.0000   0.0000   0.0000   0.2941
  14.400   1.4984   0.08950   0.08130  -0.1087  0.0017  1.0000  -4.0061   0.0000   0.0000   0.0000   0.2940
  14.500   1.4981   0.09105   0.08291  -0.1090  0.0017  1.0000  -4.0515   0.0000   0.0000   0.0000   0.2940
  14.600   1.4978   0.09260   0.08452  -0.1092  0.0017  1.0000  -4.0972   0.0000   0.0000   0.0000   0.2940
  14.700   1.4975   0.09417   0.08614  -0.1096  0.0017  1.0000  -4.1425   0.0000   0.0000   0.0000   0.2939
  14.800   1.4968   0.09578   0.08782  -0.1099  0.0017  1.0000  -4.1859   0.0000   0.0000   0.0000   0.2940
  14.900   1.4963   0.09740   0.08949  -0.1102  0.0017  1.0000  -4.2297   0.0000   0.0000   0.0000   0.2940
  15.000   1.4957   0.09902   0.09118  -0.1106  0.0017  1.0000  -4.2732   0.0000   0.0000   0.0000   0.2941
  15.100   1.4949   0.10069   0.09291  -0.1110  0.0017  1.0000  -4.3147   0.0000   0.0000   0.0000   0.2941
  15.200   1.4941   0.10235   0.09463  -0.1114  0.0017  1.0000  -4.3567   0.0000   0.0000   0.0000   0.2942
  15.300   1.4933   0.10404   0.09637  -0.1119  0.0017  1.0000  -4.3975   0.0000   0.0000   0.0000   0.2943
  15.400   1.4922   0.10575   0.09814  -0.1123  0.0017  1.0000  -4.4369   0.0000   0.0000   0.0000   0.2945
  15.500   1.4913   0.10745   0.09990  -0.1128  0.0017  1.0000  -4.4769   0.0000   0.0000   0.0000   0.2946
  15.600   1.4902   0.10918   0.10168  -0.1133  0.0017  1.0000  -4.5153   0.0000   0.0000   0.0000   0.2948
  15.700   1.4890   0.11093   0.10349  -0.1139  0.0017  1.0000  -4.5529   0.0000   0.0000   0.0000   0.2950
  15.800   1.4878   0.11266   0.10527  -0.1144  0.0017  1.0000  -4.5908   0.0000   0.0000   0.0000   0.2952
  15.900   1.4865   0.11443   0.10710  -0.1150  0.0016  1.0000  -4.6266   0.0000   0.0000   0.0000   0.2954
  16.000   1.4852   0.11620   0.10893  -0.1156  0.0016  1.0000  -4.6624   0.0000   0.0000   0.0000   0.2956
  16.100   1.4839   0.11796   0.11074  -0.1162  0.0016  1.0000  -4.6980   0.0000   0.0000   0.0000   0.2959
  16.200   1.4824   0.11975   0.11259  -0.1168  0.0016  1.0000  -4.7318   0.0000   0.0000   0.0000   0.2962
  16.300   1.4810   0.12153   0.11442  -0.1175  0.0016  1.0000  -4.7660   0.0000   0.0000   0.0000   0.2965
  16.400   1.4795   0.12332   0.11627  -0.1181  0.0016  1.0000  -4.7989   0.0000   0.0000   0.0000   0.2968
  16.500   1.4779   0.12512   0.11813  -0.1188  0.0016  1.0000  -4.8310   0.0000   0.0000   0.0000   0.2971
  16.600   1.4764   0.12691   0.11996  -0.1195  0.0016  1.0000  -4.8633   0.0000   0.0000   0.0000   0.2974
  16.700   1.4747   0.12873   0.12184  -0.1202  0.0016  1.0000  -4.8937   0.0000   0.0000   0.0000   0.2978
  16.800   1.4731   0.13053   0.12369  -0.1210  0.0016  1.0000  -4.9243   0.0000   0.0000   0.0000   0.2982
  16.900   1.4715   0.13232   0.12554  -0.1217  0.0016  1.0000  -4.9544   0.0000   0.0000   0.0000   0.2986
  17.000   1.4697   0.13414   0.12741  -0.1225  0.0016  1.0000  -4.9832   0.0000   0.0000   0.0000   0.2990


