xflr5 v6.59

 Calculated polar for: SF-12

 1 1 Reynolds number fixed          Mach number fixed         

 xtrf =   1.000 (top)        1.000 (bottom)
 Mach =   0.050     Re =     0.060 e 6     Ncrit =   5.000

  alpha     CL        CD       CDp       Cm    Top Xtr Bot Xtr   Cpmin    Chinge    XCp    
 ------- -------- --------- --------- -------- ------- ------- -------- --------- ---------
  -3.000   0.1968   0.03296   0.02286  -0.1198  0.7640  0.1141  -1.6164   0.0000   0.0000   0.0000   0.8698
  -2.900   0.2085   0.03268   0.02255  -0.1199  0.7623  0.1163  -1.5711   0.0000   0.0000   0.0000   0.8352
  -2.800   0.2210   0.03238   0.02221  -0.1201  0.7608  0.1189  -1.5283   0.0000   0.0000   0.0000   0.8027
  -2.700   0.2345   0.03194   0.02157  -0.1205  0.7595  0.1231  -1.4960   0.0000   0.0000   0.0000   0.7721
  -2.600   0.2478   0.03170   0.02133  -0.1208  0.7583  0.1263  -1.4504   0.0000   0.0000   0.0000   0.7450
  -2.500   0.2617   0.03141   0.02096  -0.1211  0.7572  0.1302  -1.4080   0.0000   0.0000   0.0000   0.7199
  -2.400   0.2682   0.03125   0.02065  -0.1205  0.7544  0.1335  -1.3879   0.0000   0.0000   0.0000   0.7058
  -2.300   0.2648   0.03157   0.02101  -0.1184  0.7493  0.1344  -1.3751   0.0000   0.0000   0.0000   0.7036
  -2.200   0.2713   0.03159   0.02105  -0.1177  0.7463  0.1368  -1.3425   0.0000   0.0000   0.0000   0.6900
  -2.100   0.2811   0.03145   0.02082  -0.1175  0.7441  0.1408  -1.3080   0.0000   0.0000   0.0000   0.6735
  -2.000   0.2924   0.03125   0.02055  -0.1175  0.7422  0.1449  -1.2707   0.0000   0.0000   0.0000   0.6568
  -1.900   0.3045   0.03109   0.02038  -0.1176  0.7405  0.1488  -1.2286   0.0000   0.0000   0.0000   0.6407
  -1.800   0.3179   0.03082   0.01998  -0.1178  0.7392  0.1539  -1.1903   0.0000   0.0000   0.0000   0.6248
  -1.700   0.3313   0.03065   0.01983  -0.1181  0.7379  0.1582  -1.1438   0.0000   0.0000   0.0000   0.6103
  -1.600   0.3459   0.03039   0.01945  -0.1186  0.7367  0.1643  -1.1045   0.0000   0.0000   0.0000   0.5961
  -1.500   0.3603   0.03018   0.01926  -0.1190  0.7357  0.1690  -1.0624   0.0000   0.0000   0.0000   0.5832
  -1.400   0.3540   0.03066   0.01975  -0.1165  0.7301  0.1703  -1.0580   0.0000   0.0000   0.0000   0.5820
  -1.300   0.3576   0.03079   0.01980  -0.1154  0.7263  0.1745  -1.0394   0.0000   0.0000   0.0000   0.5754
  -1.200   0.3657   0.03079   0.01984  -0.1150  0.7238  0.1783  -1.0075   0.0000   0.0000   0.0000   0.5666
  -1.100   0.3766   0.03070   0.01968  -0.1148  0.7218  0.1840  -0.9750   0.0000   0.0000   0.0000   0.5569
  -1.000   0.3885   0.03057   0.01954  -0.1148  0.7201  0.1891  -0.9385   0.0000   0.0000   0.0000   0.5473
  -0.900   0.4017   0.03041   0.01930  -0.1150  0.7186  0.1962  -0.9020   0.0000   0.0000   0.0000   0.5377
  -0.800   0.4156   0.03024   0.01914  -0.1153  0.7173  0.2022  -0.8616   0.0000   0.0000   0.0000   0.5286
  -0.700   0.4306   0.03005   0.01889  -0.1158  0.7162  0.2095  -0.8219   0.0000   0.0000   0.0000   0.5197
  -0.600   0.4458   0.02986   0.01866  -0.1163  0.7151  0.2173  -0.8092   0.0000   0.0000   0.0000   0.5114
  -0.400   0.4411   0.03067   0.01951  -0.1125  0.7055  0.2228  -0.8078   0.0000   0.0000   0.0000   0.5054
  -0.300   0.4504   0.03068   0.01949  -0.1122  0.7030  0.2293  -0.8156   0.0000   0.0000   0.0000   0.4992
  -0.200   0.4620   0.03060   0.01941  -0.1122  0.7010  0.2363  -0.8252   0.0000   0.0000   0.0000   0.4927
  -0.100   0.4751   0.03048   0.01925  -0.1124  0.6993  0.2449  -0.8362   0.0000   0.0000   0.0000   0.4862
   0.000   0.4889   0.03032   0.01909  -0.1127  0.6979  0.2534  -0.8478   0.0000   0.0000   0.0000   0.4799
   0.100   0.5033   0.03014   0.01890  -0.1130  0.6967  0.2626  -0.8598   0.0000   0.0000   0.0000   0.4738
   0.200   0.5183   0.02994   0.01868  -0.1135  0.6955  0.2728  -0.8724   0.0000   0.0000   0.0000   0.4680
   0.300   0.5337   0.02973   0.01846  -0.1140  0.6945  0.2838  -0.8854   0.0000   0.0000   0.0000   0.4624
   0.500   0.5236   0.03078   0.01957  -0.1096  0.6837  0.2905  -0.8809   0.0000   0.0000   0.0000   0.4578
   0.600   0.5343   0.03072   0.01953  -0.1095  0.6815  0.3007  -0.8907   0.0000   0.0000   0.0000   0.4532
   0.700   0.5468   0.03058   0.01942  -0.1096  0.6798  0.3127  -0.9018   0.0000   0.0000   0.0000   0.4486
   0.800   0.5604   0.03039   0.01926  -0.1098  0.6783  0.3267  -0.9139   0.0000   0.0000   0.0000   0.4440
   0.900   0.5748   0.03017   0.01908  -0.1102  0.6770  0.3431  -0.9270   0.0000   0.0000   0.0000   0.4396
   1.100   0.6050   0.02956   0.01866  -0.1112  0.6749  0.3921  -0.9544   0.0000   0.0000   0.0000   0.4313
   1.300   0.5932   0.03064   0.01991  -0.1067  0.6638  0.4179  -0.9487   0.0000   0.0000   0.0000   0.4271
   1.400   0.6013   0.03010   0.01996  -0.1061  0.6617  0.5326  -0.9579   0.0000   0.0000   0.0000   0.4235
   1.600   0.6402   0.02927   0.01958  -0.1082  0.6588  1.0000  -0.9920   0.0000   0.0000   0.0000   0.4157
   1.700   0.6550   0.02919   0.01939  -0.1085  0.6575  1.0000  -1.0060   0.0000   0.0000   0.0000   0.4123
   1.800   0.6705   0.02909   0.01919  -0.1089  0.6563  1.0000  -1.0208   0.0000   0.0000   0.0000   0.4089
   1.900   0.6865   0.02897   0.01896  -0.1094  0.6552  1.0000  -1.0365   0.0000   0.0000   0.0000   0.4057
   2.100   0.6710   0.03043   0.02043  -0.1045  0.6434  1.0000  -1.0284   0.0000   0.0000   0.0000   0.4017
   2.200   0.6830   0.03044   0.02037  -0.1045  0.6414  1.0000  -1.0408   0.0000   0.0000   0.0000   0.3988
   2.300   0.6968   0.03038   0.02024  -0.1047  0.6398  1.0000  -1.0546   0.0000   0.0000   0.0000   0.3959
   2.400   0.7116   0.03028   0.02006  -0.1050  0.6384  1.0000  -1.0698   0.0000   0.0000   0.0000   0.3931
   2.500   0.7274   0.03015   0.01986  -0.1055  0.6372  1.0000  -1.0860   0.0000   0.0000   0.0000   0.3904
   2.600   0.7438   0.02999   0.01963  -0.1060  0.6362  1.0000  -1.1028   0.0000   0.0000   0.0000   0.3878
   2.800   0.7239   0.03158   0.02125  -0.1005  0.6240  1.0000  -1.0911   0.0000   0.0000   0.0000   0.3838
   2.900   0.7366   0.03155   0.02118  -0.1006  0.6221  1.0000  -1.1048   0.0000   0.0000   0.0000   0.3814
   3.000   0.7512   0.03145   0.02102  -0.1009  0.6206  1.0000  -1.1206   0.0000   0.0000   0.0000   0.3790
   3.100   0.7672   0.03131   0.02082  -0.1014  0.6193  1.0000  -1.1377   0.0000   0.0000   0.0000   0.3767
   3.200   0.7841   0.03114   0.02059  -0.1020  0.6181  1.0000  -1.1556   0.0000   0.0000   0.0000   0.3744
   3.300   0.8013   0.03094   0.02034  -0.1026  0.6171  1.0000  -1.1739   0.0000   0.0000   0.0000   0.3723
   3.500   0.7761   0.03274   0.02217  -0.0965  0.6043  1.0000  -1.1576   0.0000   0.0000   0.0000   0.3683
   3.600   0.7899   0.03264   0.02203  -0.0967  0.6026  1.0000  -1.1736   0.0000   0.0000   0.0000   0.3662
   3.700   0.8053   0.03247   0.02183  -0.0970  0.6012  1.0000  -1.1910   0.0000   0.0000   0.0000   0.3642
   3.800   0.8221   0.03227   0.02158  -0.0976  0.6000  1.0000  -1.2097   0.0000   0.0000   0.0000   0.3622
   3.900   0.8399   0.03204   0.02131  -0.0983  0.5989  1.0000  -1.2294   0.0000   0.0000   0.0000   0.3604
   4.200   0.8292   0.03384   0.02311  -0.0927  0.5846  1.0000  -1.2300   0.0000   0.0000   0.0000   0.3548
   4.300   0.8442   0.03366   0.02290  -0.0930  0.5831  1.0000  -1.2480   0.0000   0.0000   0.0000   0.3529
   4.400   0.8607   0.03342   0.02263  -0.0934  0.5819  1.0000  -1.2674   0.0000   0.0000   0.0000   0.3512
   4.500   0.8785   0.03314   0.02236  -0.0940  0.5808  1.0000  -1.2880   0.0000   0.0000   0.0000   0.3496
   4.600   0.8960   0.03288   0.02207  -0.0946  0.5796  1.0000  -1.3088   0.0000   0.0000   0.0000   0.3480
   4.800   0.8693   0.03506   0.02429  -0.0890  0.5665  1.0000  -1.2903   0.0000   0.0000   0.0000   0.3445
   4.900   0.8843   0.03484   0.02405  -0.0892  0.5650  1.0000  -1.3092   0.0000   0.0000   0.0000   0.3429
   5.000   0.9008   0.03455   0.02375  -0.0896  0.5638  1.0000  -1.3296   0.0000   0.0000   0.0000   0.3413
   5.100   0.9184   0.03422   0.02340  -0.0901  0.5627  1.0000  -1.3512   0.0000   0.0000   0.0000   0.3398
   5.200   0.9364   0.03390   0.02305  -0.0907  0.5615  1.0000  -1.3736   0.0000   0.0000   0.0000   0.3384
   5.400   0.9105   0.03625   0.02545  -0.0856  0.5484  1.0000  -1.3550   0.0000   0.0000   0.0000   0.3352
   5.500   0.9257   0.03598   0.02517  -0.0858  0.5469  1.0000  -1.3751   0.0000   0.0000   0.0000   0.3337
   5.600   0.9423   0.03565   0.02482  -0.0861  0.5457  1.0000  -1.3967   0.0000   0.0000   0.0000   0.3323
   5.700   0.9602   0.03527   0.02445  -0.0865  0.5446  1.0000  -1.4197   0.0000   0.0000   0.0000   0.3309
   6.000   0.9527   0.03740   0.02663  -0.0824  0.5303  1.0000  -1.4245   0.0000   0.0000   0.0000   0.3268
   6.100   0.9683   0.03708   0.02630  -0.0826  0.5289  1.0000  -1.4461   0.0000   0.0000   0.0000   0.3254
   6.200   0.9853   0.03669   0.02590  -0.0828  0.5276  1.0000  -1.4692   0.0000   0.0000   0.0000   0.3241
   6.300   1.0039   0.03624   0.02544  -0.0833  0.5266  1.0000  -1.4943   0.0000   0.0000   0.0000   0.3229
   6.500   0.9813   0.03881   0.02806  -0.0793  0.5139  1.0000  -1.4777   0.0000   0.0000   0.0000   0.3204
   6.600   0.9958   0.03852   0.02777  -0.0794  0.5122  1.0000  -1.4991   0.0000   0.0000   0.0000   0.3191
   6.700   1.0121   0.03813   0.02738  -0.0795  0.5109  1.0000  -1.5225   0.0000   0.0000   0.0000   0.3179
   6.800   1.0300   0.03765   0.02690  -0.0799  0.5097  1.0000  -1.5480   0.0000   0.0000   0.0000   0.3167
   6.900   1.0477   0.03722   0.02646  -0.0802  0.5084  1.0000  -1.5737   0.0000   0.0000   0.0000   0.3155
   7.200   1.0399   0.03958   0.02893  -0.0765  0.4942  1.0000  -1.5794   0.0000   0.0000   0.0000   0.3120
   7.300   1.0574   0.03909   0.02844  -0.0767  0.4929  1.0000  -1.6055   0.0000   0.0000   0.0000   0.3109
   7.400   1.0764   0.03853   0.02788  -0.0771  0.4918  1.0000  -1.6336   0.0000   0.0000   0.0000   0.3098
   7.600   1.0533   0.04144   0.03084  -0.0736  0.4794  1.0000  -1.6153   0.0000   0.0000   0.0000   0.3078
   7.700   1.0683   0.04107   0.03048  -0.0736  0.4777  1.0000  -1.6395   0.0000   0.0000   0.0000   0.3066
   7.800   1.0855   0.04057   0.02999  -0.0738  0.4763  1.0000  -1.6665   0.0000   0.0000   0.0000   0.3055
   7.900   1.1043   0.03997   0.02940  -0.0741  0.4750  1.0000  -1.6957   0.0000   0.0000   0.0000   0.3045
   8.100   1.0825   0.04296   0.03245  -0.0710  0.4631  1.0000  -1.6781   0.0000   0.0000   0.0000   0.3026
   8.200   1.0969   0.04261   0.03211  -0.0709  0.4613  1.0000  -1.7029   0.0000   0.0000   0.0000   0.3016
   8.300   1.1138   0.04209   0.03161  -0.0710  0.4598  1.0000  -1.7309   0.0000   0.0000   0.0000   0.3005
   8.400   1.1326   0.04146   0.03102  -0.0712  0.4584  1.0000  -1.7614   0.0000   0.0000   0.0000   0.2995
   8.600   1.1112   0.04456   0.03419  -0.0684  0.4470  1.0000  -1.7437   0.0000   0.0000   0.0000   0.2978
   8.700   1.1252   0.04423   0.03387  -0.0683  0.4450  1.0000  -1.7691   0.0000   0.0000   0.0000   0.2968
   8.800   1.1419   0.04370   0.03335  -0.0684  0.4434  1.0000  -1.7983   0.0000   0.0000   0.0000   0.2958
   8.900   1.1608   0.04302   0.03270  -0.0685  0.4420  1.0000  -1.8306   0.0000   0.0000   0.0000   0.2948
   9.100   1.1390   0.04631   0.03605  -0.0660  0.4308  1.0000  -1.8118   0.0000   0.0000   0.0000   0.2933
   9.200   1.1527   0.04598   0.03574  -0.0658  0.4288  1.0000  -1.8381   0.0000   0.0000   0.0000   0.2924
   9.300   1.1694   0.04541   0.03520  -0.0658  0.4271  1.0000  -1.8689   0.0000   0.0000   0.0000   0.2914
   9.400   1.1886   0.04468   0.03448  -0.0659  0.4256  1.0000  -1.9035   0.0000   0.0000   0.0000   0.2904
   9.600   1.1653   0.04824   0.03811  -0.0636  0.4147  1.0000  -1.8821   0.0000   0.0000   0.0000   0.2891
   9.700   1.1789   0.04789   0.03779  -0.0634  0.4126  1.0000  -1.9098   0.0000   0.0000   0.0000   0.2882
   9.800   1.1959   0.04727   0.03719  -0.0634  0.4109  1.0000  -1.9429   0.0000   0.0000   0.0000   0.2872
   9.900   1.2157   0.04646   0.03643  -0.0635  0.4094  1.0000  -1.9815   0.0000   0.0000   0.0000   0.2863
  10.000   1.1835   0.05009   0.04011  -0.0617  0.4018  1.0000  -1.9378   0.0000   0.0000   0.0000   0.2860
  10.100   1.1895   0.05041   0.04047  -0.0613  0.3987  1.0000  -1.9549   0.0000   0.0000   0.0000   0.2852
  10.200   1.2035   0.05002   0.04010  -0.0611  0.3966  1.0000  -1.9854   0.0000   0.0000   0.0000   0.2843
  10.300   1.2211   0.04931   0.03941  -0.0610  0.3949  1.0000  -2.0230   0.0000   0.0000   0.0000   0.2833
  10.400   1.2418   0.04839   0.03851  -0.0611  0.3934  1.0000  -2.0674   0.0000   0.0000   0.0000   0.2824
  10.500   1.2039   0.05269   0.04287  -0.0594  0.3856  1.0000  -2.0107   0.0000   0.0000   0.0000   0.2823
  10.600   1.2115   0.05287   0.04309  -0.0590  0.3827  1.0000  -2.0330   0.0000   0.0000   0.0000   0.2815
  10.700   1.2262   0.05238   0.04262  -0.0588  0.3807  1.0000  -2.0697   0.0000   0.0000   0.0000   0.2806
  10.800   1.2447   0.05156   0.04183  -0.0587  0.3790  1.0000  -2.1160   0.0000   0.0000   0.0000   0.2796
  10.900   1.2668   0.05048   0.04077  -0.0588  0.3775  1.0000  -2.1742   0.0000   0.0000   0.0000   0.2787
  11.000   1.2213   0.05567   0.04603  -0.0572  0.3695  1.0000  -2.0933   0.0000   0.0000   0.0000   0.2790
  11.100   1.2310   0.05565   0.04605  -0.0569  0.3669  1.0000  -2.1258   0.0000   0.0000   0.0000   0.2781
  11.200   1.2468   0.05502   0.04544  -0.0567  0.3650  1.0000  -2.1743   0.0000   0.0000   0.0000   0.2772
  11.300   1.2665   0.05405   0.04452  -0.0566  0.3634  1.0000  -2.3044   0.0000   0.0000   0.0000   0.2762
  11.400   1.2428   0.05736   0.04786  -0.0557  0.3578  1.0000  -2.2270   0.0000   0.0000   0.0000   0.2762
  11.500   1.2360   0.05906   0.04961  -0.0553  0.3536  1.0000  -2.2345   0.0000   0.0000   0.0000   0.2759
  11.600   1.2479   0.05878   0.04939  -0.0550  0.3513  1.0000  -2.3390   0.0000   0.0000   0.0000   0.2750
  11.700   1.2652   0.05796   0.04860  -0.0547  0.3495  1.0000  -2.4717   0.0000   0.0000   0.0000   0.2740
  11.800   1.2866   0.05677   0.04743  -0.0545  0.3480  1.0000  -2.6279   0.0000   0.0000   0.0000   0.2730
  11.900   1.2440   0.06229   0.05302  -0.0539  0.3409  1.0000  -2.4464   0.0000   0.0000   0.0000   0.2738
  12.000   1.2480   0.06287   0.05364  -0.0536  0.3379  1.0000  -2.5108   0.0000   0.0000   0.0000   0.2732
  12.100   1.2625   0.06228   0.05309  -0.0532  0.3359  1.0000  -2.6322   0.0000   0.0000   0.0000   0.2722
  12.200   1.2816   0.06121   0.05205  -0.0529  0.3343  1.0000  -2.7804   0.0000   0.0000   0.0000   0.2711
  12.300   1.3052   0.05971   0.05058  -0.0527  0.3328  1.0000  -2.9556   0.0000   0.0000   0.0000   0.2700
  12.400   1.2473   0.06726   0.05820  -0.0525  0.3248  1.0000  -2.6795   0.0000   0.0000   0.0000   0.2716
  12.500   1.2577   0.06708   0.05806  -0.0521  0.3225  1.0000  -2.7818   0.0000   0.0000   0.0000   0.2707
  12.600   1.2749   0.06612   0.05714  -0.0517  0.3208  1.0000  -2.9232   0.0000   0.0000   0.0000   0.2696
  12.700   1.2963   0.06471   0.05577  -0.0513  0.3193  1.0000  -3.0904   0.0000   0.0000   0.0000   0.2684
  12.800   1.2474   0.07174   0.06285  -0.0517  0.3121  1.0000  -2.8545   0.0000   0.0000   0.0000   0.2702
  12.900   1.2507   0.07245   0.06361  -0.0515  0.3092  1.0000  -2.9175   0.0000   0.0000   0.0000   0.2697
  13.000   1.2659   0.07163   0.06283  -0.0510  0.3074  1.0000  -3.0509   0.0000   0.0000   0.0000   0.2686
  13.200   1.3102   0.06838   0.05968  -0.0499  0.3046  1.0000  -3.4051   0.0000   0.0000   0.0000   0.2659
  13.300   1.2417   0.07841   0.06974  -0.0514  0.2959  1.0000  -3.0385   0.0000   0.0000   0.0000   0.2692
  13.400   1.2546   0.07779   0.06917  -0.0509  0.2941  1.0000  -3.1615   0.0000   0.0000   0.0000   0.2681
  13.500   1.2737   0.07636   0.06781  -0.0502  0.2927  1.0000  -3.3231   0.0000   0.0000   0.0000   0.2667
  13.600   1.2969   0.07444   0.06594  -0.0495  0.2914  1.0000  -3.5121   0.0000   0.0000   0.0000   0.2652
  13.700   1.2305   0.08499   0.07649  -0.0518  0.2825  1.0000  -3.1417   0.0000   0.0000   0.0000   0.2692
  13.800   1.2424   0.08445   0.07603  -0.0513  0.2808  1.0000  -3.2603   0.0000   0.0000   0.0000   0.2681
  13.900   1.2601   0.08306   0.07469  -0.0505  0.2794  1.0000  -3.4180   0.0000   0.0000   0.0000   0.2667
  14.000   1.2828   0.08101   0.07269  -0.0496  0.2783  1.0000  -3.6091   0.0000   0.0000   0.0000   0.2650
  14.200   1.2302   0.09144   0.08318  -0.0522  0.2675  1.0000  -3.3531   0.0000   0.0000   0.0000   0.2685
  14.300   1.2472   0.09002   0.08182  -0.0514  0.2663  1.0000  -3.5102   0.0000   0.0000   0.0000   0.2670
  14.400   1.2690   0.08791   0.07977  -0.0503  0.2653  1.0000  -3.7008   0.0000   0.0000   0.0000   0.2652
  14.500   1.2959   0.08510   0.07701  -0.0491  0.2642  1.0000  -3.9282   0.0000   0.0000   0.0000   0.2631
  14.800   1.1941   0.10554   0.09749  -0.0559  0.2458  1.0000  -3.3485   0.0000   0.0000   0.0000   0.2719
  14.900   1.1976   0.10627   0.09827  -0.0559  0.2432  1.0000  -3.4136   0.0000   0.0000   0.0000   0.2715
  15.000   1.2104   0.10535   0.09741  -0.0551  0.2418  1.0000  -3.5473   0.0000   0.0000   0.0000   0.2702


