xflr5 v6.59

 Calculated polar for: SF-15

 1 1 Reynolds number fixed          Mach number fixed         

 xtrf =   1.000 (top)        1.000 (bottom)
 Mach =   0.050     Re =     0.030 e 6     Ncrit =   5.000

  alpha     CL        CD       CDp       Cm    Top Xtr Bot Xtr   Cpmin    Chinge    XCp    
 ------- -------- --------- --------- -------- ------- ------- -------- --------- ---------
  -3.000  -0.0240   0.07544   0.06775  -0.0885  0.8540  0.1034  -1.7882   0.0000   0.0000   0.0000  -3.5271
  -2.900  -0.0087   0.07389   0.06614  -0.0908  0.8520  0.1023  -1.7635   0.0000   0.0000   0.0000  -10.4149
  -2.800   0.0102   0.07210   0.06424  -0.0942  0.8504  0.1012  -1.7442   0.0000   0.0000   0.0000   9.6895
  -2.700   0.0169   0.07103   0.06311  -0.0952  0.8468  0.1006  -1.7400   0.0000   0.0000   0.0000   5.9994
  -2.600   0.0277   0.06974   0.06174  -0.0972  0.8435  0.1003  -1.7330   0.0000   0.0000   0.0000   3.8248
  -2.500   0.0429   0.06825   0.06014  -0.1000  0.8406  0.1008  -1.7207   0.0000   0.0000   0.0000   2.6231
  -2.400   0.0626   0.06653   0.05826  -0.1039  0.8381  0.1020  -1.7073   0.0000   0.0000   0.0000   1.9400
  -2.300   0.0875   0.06446   0.05593  -0.1090  0.8359  0.1034  -1.6987   0.0000   0.0000   0.0000   1.5156
  -2.200   0.1061   0.06308   0.05442  -0.1118  0.8337  0.1047  -1.6633   0.0000   0.0000   0.0000   1.3204
  -2.100   0.1250   0.06178   0.05299  -0.1145  0.8317  0.1057  -1.6223   0.0000   0.0000   0.0000   1.1793
  -2.000   0.1483   0.06017   0.05116  -0.1181  0.8300  0.1061  -1.5888   0.0000   0.0000   0.0000   1.0578
  -1.900   0.1714   0.05873   0.04949  -0.1215  0.8284  0.1073  -1.5468   0.0000   0.0000   0.0000   0.9683
  -1.800   0.1869   0.05776   0.04833  -0.1235  0.8258  0.1094  -1.5200   0.0000   0.0000   0.0000   0.9190
  -1.700   0.1993   0.05687   0.04721  -0.1251  0.8223  0.1115  -1.5254   0.0000   0.0000   0.0000   0.8854
  -1.600   0.2128   0.05605   0.04621  -0.1266  0.8191  0.1138  -1.5178   0.0000   0.0000   0.0000   0.8517
  -1.500   0.2245   0.05554   0.04560  -0.1273  0.8161  0.1162  -1.4911   0.0000   0.0000   0.0000   0.8234
  -1.400   0.2421   0.05466   0.04448  -0.1292  0.8136  0.1184  -1.4769   0.0000   0.0000   0.0000   0.7893
  -1.300   0.2633   0.05359   0.04306  -0.1318  0.8115  0.1208  -1.4689   0.0000   0.0000   0.0000   0.7553
  -1.200   0.2807   0.05297   0.04227  -0.1333  0.8093  0.1246  -1.4362   0.0000   0.0000   0.0000   0.7292
  -1.100   0.3001   0.05231   0.04137  -0.1351  0.8075  0.1296  -1.4045   0.0000   0.0000   0.0000   0.7041
  -1.000   0.3201   0.05168   0.04050  -0.1369  0.8058  0.1341  -1.3685   0.0000   0.0000   0.0000   0.6811
  -0.900   0.3236   0.05165   0.04038  -0.1363  0.8016  0.1360  -1.3530   0.0000   0.0000   0.0000   0.6742
  -0.800   0.3331   0.05142   0.03992  -0.1365  0.7979  0.1394  -1.3341   0.0000   0.0000   0.0000   0.6626
  -0.700   0.3448   0.05120   0.03955  -0.1370  0.7947  0.1439  -1.3025   0.0000   0.0000   0.0000   0.6498
  -0.600   0.3590   0.05093   0.03907  -0.1378  0.7919  0.1498  -1.2674   0.0000   0.0000   0.0000   0.6359
  -0.500   0.3741   0.05065   0.03864  -0.1386  0.7895  0.1552  -1.2265   0.0000   0.0000   0.0000   0.6222
  -0.400   0.3916   0.05032   0.03804  -0.1397  0.7874  0.1626  -1.1867   0.0000   0.0000   0.0000   0.6082
  -0.300   0.4088   0.05005   0.03760  -0.1407  0.7855  0.1711  -1.1376   0.0000   0.0000   0.0000   0.5954
  -0.200   0.4199   0.04997   0.03745  -0.1409  0.7827  0.1775  -1.1064   0.0000   0.0000   0.0000   0.5866
  -0.100   0.4225   0.05017   0.03753  -0.1401  0.7781  0.1824  -1.0931   0.0000   0.0000   0.0000   0.5824
   0.000   0.4307   0.05020   0.03753  -0.1399  0.7745  0.1892  -1.0641   0.0000   0.0000   0.0000   0.5755
   0.100   0.4427   0.05012   0.03737  -0.1402  0.7715  0.1983  -1.0315   0.0000   0.0000   0.0000   0.5671
   0.200   0.4565   0.05001   0.03718  -0.1407  0.7689  0.2096  -0.9940   0.0000   0.0000   0.0000   0.5585
   0.300   0.4717   0.04987   0.03697  -0.1414  0.7666  0.2230  -0.9529   0.0000   0.0000   0.0000   0.5497
   0.400   0.4885   0.04969   0.03672  -0.1422  0.7647  0.2401  -0.9088   0.0000   0.0000   0.0000   0.5409
   0.500   0.4994   0.04971   0.03671  -0.1424  0.7619  0.2551  -0.8744   0.0000   0.0000   0.0000   0.5346
   0.600   0.4995   0.05006   0.03710  -0.1413  0.7570  0.2633  -0.8583   0.0000   0.0000   0.0000   0.5322
   0.700   0.5080   0.05016   0.03720  -0.1411  0.7533  0.2804  -0.8279   0.0000   0.0000   0.0000   0.5271
   0.800   0.5194   0.05013   0.03724  -0.1413  0.7504  0.3025  -0.7902   0.0000   0.0000   0.0000   0.5212
   0.900   0.5331   0.05002   0.03721  -0.1418  0.7479  0.3337  -0.7922   0.0000   0.0000   0.0000   0.5148
   1.000   0.5482   0.04982   0.03718  -0.1424  0.7457  0.3757  -0.8044   0.0000   0.0000   0.0000   0.5084
   1.100   0.5638   0.04950   0.03712  -0.1429  0.7439  0.4363  -0.8174   0.0000   0.0000   0.0000   0.5020
   1.200   0.5666   0.04965   0.03750  -0.1420  0.7399  0.4817  -0.8201   0.0000   0.0000   0.0000   0.4989
   1.300   0.5676   0.04979   0.03790  -0.1407  0.7355  0.5371  -0.8219   0.0000   0.0000   0.0000   0.4961
   1.400   0.5707   0.04946   0.03800  -0.1392  0.7323  0.6512  -0.8262   0.0000   0.0000   0.0000   0.4919
   1.500   0.5754   0.04905   0.03771  -0.1379  0.7288  1.0000  -0.8312   0.0000   0.0000   0.0000   0.4875
   1.600   0.5913   0.04931   0.03763  -0.1387  0.7264  1.0000  -0.8442   0.0000   0.0000   0.0000   0.4822
   1.700   0.6082   0.04951   0.03755  -0.1395  0.7243  1.0000  -0.8585   0.0000   0.0000   0.0000   0.4768
   1.800   0.6118   0.05006   0.03797  -0.1388  0.7200  1.0000  -0.8620   0.0000   0.0000   0.0000   0.4743
   1.900   0.6139   0.05064   0.03845  -0.1381  0.7153  1.0000  -0.8643   0.0000   0.0000   0.0000   0.4721
   2.000   0.6230   0.05104   0.03870  -0.1380  0.7118  1.0000  -0.8726   0.0000   0.0000   0.0000   0.4686
   2.100   0.6354   0.05133   0.03883  -0.1383  0.7089  1.0000  -0.8838   0.0000   0.0000   0.0000   0.4645
   2.200   0.6500   0.05156   0.03889  -0.1388  0.7065  1.0000  -0.8974   0.0000   0.0000   0.0000   0.4602
   2.300   0.6662   0.05172   0.03889  -0.1394  0.7045  1.0000  -0.9127   0.0000   0.0000   0.0000   0.4558
   2.400   0.6636   0.05250   0.03959  -0.1382  0.6992  1.0000  -0.9110   0.0000   0.0000   0.0000   0.4547
   2.500   0.6679   0.05305   0.04007  -0.1377  0.6948  1.0000  -0.9155   0.0000   0.0000   0.0000   0.4524
   2.600   0.6779   0.05342   0.04033  -0.1377  0.6915  1.0000  -0.9252   0.0000   0.0000   0.0000   0.4492
   2.700   0.6909   0.05368   0.04047  -0.1380  0.6888  1.0000  -0.9382   0.0000   0.0000   0.0000   0.4457
   2.800   0.7061   0.05385   0.04053  -0.1384  0.6866  1.0000  -0.9535   0.0000   0.0000   0.0000   0.4419
   2.900   0.7162   0.05422   0.04080  -0.1384  0.6836  1.0000  -0.9640   0.0000   0.0000   0.0000   0.4389
   3.000   0.7116   0.05513   0.04170  -0.1372  0.6777  1.0000  -0.9604   0.0000   0.0000   0.0000   0.4383
   3.100   0.7193   0.05558   0.04208  -0.1370  0.6740  1.0000  -0.9685   0.0000   0.0000   0.0000   0.4358
   3.200   0.7312   0.05587   0.04229  -0.1371  0.6711  1.0000  -0.9811   0.0000   0.0000   0.0000   0.4327
   3.300   0.7456   0.05606   0.04239  -0.1375  0.6688  1.0000  -0.9965   0.0000   0.0000   0.0000   0.4294
   3.400   0.7617   0.05617   0.04241  -0.1379  0.6668  1.0000  -1.0137   0.0000   0.0000   0.0000   0.4260
   3.500   0.7537   0.05730   0.04354  -0.1364  0.6604  1.0000  -1.0066   0.0000   0.0000   0.0000   0.4258
   3.600   0.7596   0.05784   0.04404  -0.1361  0.6564  1.0000  -1.0134   0.0000   0.0000   0.0000   0.4238
   3.700   0.7706   0.05815   0.04430  -0.1362  0.6533  1.0000  -1.0259   0.0000   0.0000   0.0000   0.4212
   3.800   0.7847   0.05834   0.04441  -0.1364  0.6509  1.0000  -1.0417   0.0000   0.0000   0.0000   0.4182
   3.900   0.8006   0.05843   0.04443  -0.1369  0.6489  1.0000  -1.0597   0.0000   0.0000   0.0000   0.4151
   4.000   0.7930   0.05962   0.04563  -0.1355  0.6426  1.0000  -1.0528   0.0000   0.0000   0.0000   0.4150
   4.100   0.7983   0.06021   0.04619  -0.1351  0.6384  1.0000  -1.0595   0.0000   0.0000   0.0000   0.4132
   4.200   0.8093   0.06052   0.04648  -0.1352  0.6354  1.0000  -1.0723   0.0000   0.0000   0.0000   0.4108
   4.300   0.8234   0.06068   0.04658  -0.1354  0.6329  1.0000  -1.0891   0.0000   0.0000   0.0000   0.4081
   4.400   0.8394   0.06074   0.04658  -0.1358  0.6310  1.0000  -1.1081   0.0000   0.0000   0.0000   0.4052
   4.500   0.8293   0.06214   0.04800  -0.1344  0.6242  1.0000  -1.0984   0.0000   0.0000   0.0000   0.4054
   4.600   0.8356   0.06269   0.04853  -0.1341  0.6202  1.0000  -1.1066   0.0000   0.0000   0.0000   0.4036
   4.700   0.8472   0.06297   0.04877  -0.1341  0.6173  1.0000  -1.1207   0.0000   0.0000   0.0000   0.4014
   4.800   0.8618   0.06308   0.04884  -0.1343  0.6150  1.0000  -1.1386   0.0000   0.0000   0.0000   0.3988
   4.900   0.8716   0.06345   0.04918  -0.1342  0.6120  1.0000  -1.1515   0.0000   0.0000   0.0000   0.3968
   5.000   0.8637   0.06482   0.05057  -0.1331  0.6054  1.0000  -1.1439   0.0000   0.0000   0.0000   0.3967
   5.100   0.8720   0.06528   0.05101  -0.1329  0.6019  1.0000  -1.1550   0.0000   0.0000   0.0000   0.3949
   5.200   0.8847   0.06548   0.05119  -0.1330  0.5992  1.0000  -1.1713   0.0000   0.0000   0.0000   0.3927
   5.300   0.9000   0.06552   0.05119  -0.1332  0.5971  1.0000  -1.1908   0.0000   0.0000   0.0000   0.3902
   5.400   0.8940   0.06686   0.05254  -0.1323  0.5911  1.0000  -1.1849   0.0000   0.0000   0.0000   0.3900
   5.500   0.8973   0.06762   0.05331  -0.1318  0.5866  1.0000  -1.1905   0.0000   0.0000   0.0000   0.3888
   5.600   0.9080   0.06794   0.05361  -0.1318  0.5835  1.0000  -1.2051   0.0000   0.0000   0.0000   0.3869
   5.700   0.9221   0.06803   0.05369  -0.1319  0.5811  1.0000  -1.2241   0.0000   0.0000   0.0000   0.3846
   5.800   0.9383   0.06797   0.05367  -0.1321  0.5792  1.0000  -1.2458   0.0000   0.0000   0.0000   0.3822
   5.900   0.9228   0.07001   0.05573  -0.1308  0.5714  1.0000  -1.2279   0.0000   0.0000   0.0000   0.3831
   6.000   0.9313   0.07046   0.05618  -0.1306  0.5679  1.0000  -1.2399   0.0000   0.0000   0.0000   0.3814
   6.100   0.9442   0.07061   0.05633  -0.1306  0.5653  1.0000  -1.2576   0.0000   0.0000   0.0000   0.3794
   6.200   0.9596   0.07058   0.05630  -0.1308  0.5632  1.0000  -1.2791   0.0000   0.0000   0.0000   0.3771
   6.300   0.9481   0.07245   0.05819  -0.1298  0.5563  1.0000  -1.2658   0.0000   0.0000   0.0000   0.3776
   6.400   0.9541   0.07308   0.05883  -0.1295  0.5523  1.0000  -1.2752   0.0000   0.0000   0.0000   0.3763
   6.500   0.9660   0.07329   0.05904  -0.1295  0.5495  1.0000  -1.2926   0.0000   0.0000   0.0000   0.3744
   6.600   0.9808   0.07327   0.05903  -0.1295  0.5473  1.0000  -1.3139   0.0000   0.0000   0.0000   0.3723
   6.700   0.9730   0.07497   0.06075  -0.1288  0.5412  1.0000  -1.3046   0.0000   0.0000   0.0000   0.3725
   6.800   0.9761   0.07584   0.06163  -0.1284  0.5368  1.0000  -1.3101   0.0000   0.0000   0.0000   0.3716
   6.900   0.9871   0.07609   0.06190  -0.1283  0.5338  1.0000  -1.3263   0.0000   0.0000   0.0000   0.3698
   7.000   1.0016   0.07607   0.06189  -0.1283  0.5315  1.0000  -1.3478   0.0000   0.0000   0.0000   0.3678
   7.100   0.9966   0.07762   0.06346  -0.1278  0.5260  1.0000  -1.3424   0.0000   0.0000   0.0000   0.3677
   7.200   0.9972   0.07873   0.06459  -0.1274  0.5212  1.0000  -1.3447   0.0000   0.0000   0.0000   0.3672
   7.300   1.0074   0.07904   0.06498  -0.1273  0.5181  1.0000  -1.3607   0.0000   0.0000   0.0000   0.3656
   7.400   1.0215   0.07903   0.06498  -0.1272  0.5158  1.0000  -1.3825   0.0000   0.0000   0.0000   0.3636
   7.500   1.0183   0.08049   0.06646  -0.1268  0.5107  1.0000  -1.3790   0.0000   0.0000   0.0000   0.3634
   7.600   1.0171   0.08179   0.06779  -0.1264  0.5056  1.0000  -1.3783   0.0000   0.0000   0.0000   0.3631
   7.700   1.0268   0.08214   0.06817  -0.1263  0.5025  1.0000  -1.3937   0.0000   0.0000   0.0000   0.3616
   7.800   1.0406   0.08213   0.06818  -0.1261  0.5002  1.0000  -1.4152   0.0000   0.0000   0.0000   0.3596
   7.900   1.0377   0.08363   0.06970  -0.1258  0.4952  1.0000  -1.4118   0.0000   0.0000   0.0000   0.3595
   8.000   1.0358   0.08503   0.07114  -0.1255  0.4901  1.0000  -1.4103   0.0000   0.0000   0.0000   0.3593
   8.100   1.0452   0.08541   0.07155  -0.1253  0.4870  1.0000  -1.4260   0.0000   0.0000   0.0000   0.3579
   8.200   1.0588   0.08539   0.07156  -0.1252  0.4847  1.0000  -1.4485   0.0000   0.0000   0.0000   0.3560
   8.300   1.0547   0.08707   0.07326  -0.1249  0.4796  1.0000  -1.4430   0.0000   0.0000   0.0000   0.3561
   8.400   1.0531   0.08849   0.07472  -0.1247  0.4747  1.0000  -1.4414   0.0000   0.0000   0.0000   0.3560
   8.500   1.0625   0.08887   0.07513  -0.1245  0.4717  1.0000  -1.4572   0.0000   0.0000   0.0000   0.3545
   8.600   1.0760   0.08884   0.07514  -0.1243  0.4694  1.0000  -1.4796   0.0000   0.0000   0.0000   0.3527
   8.700   1.0700   0.09077   0.07710  -0.1241  0.4642  1.0000  -1.4703   0.0000   0.0000   0.0000   0.3531
   8.800   1.0691   0.09218   0.07860  -0.1240  0.4595  1.0000  -1.4692   0.0000   0.0000   0.0000   0.3529
   8.900   1.0784   0.09255   0.07902  -0.1238  0.4565  1.0000  -1.4854   0.0000   0.0000   0.0000   0.3515
   9.000   1.0919   0.09251   0.07901  -0.1235  0.4543  1.0000  -1.5091   0.0000   0.0000   0.0000   0.3497
   9.100   1.0840   0.09471   0.08124  -0.1235  0.4489  1.0000  -1.4965   0.0000   0.0000   0.0000   0.3504
   9.200   1.0836   0.09611   0.08268  -0.1234  0.4445  1.0000  -1.4965   0.0000   0.0000   0.0000   0.3502
   9.300   1.0928   0.09650   0.08312  -0.1232  0.4416  1.0000  -1.5129   0.0000   0.0000   0.0000   0.3489
   9.400   1.1061   0.09644   0.08310  -0.1229  0.4394  1.0000  -1.5366   0.0000   0.0000   0.0000   0.3471
   9.500   1.0971   0.09883   0.08552  -0.1231  0.4340  1.0000  -1.5210   0.0000   0.0000   0.0000   0.3480
   9.600   1.0970   0.10024   0.08697  -0.1230  0.4298  1.0000  -1.5209   0.0000   0.0000   0.0000   0.3478
   9.700   1.1057   0.10069   0.08747  -0.1228  0.4270  1.0000  -1.5363   0.0000   0.0000   0.0000   0.3466
   9.800   1.1185   0.10068   0.08751  -0.1225  0.4248  1.0000  -1.5604   0.0000   0.0000   0.0000   0.3448
   9.900   1.1097   0.10311   0.08997  -0.1228  0.4197  1.0000  -1.5447   0.0000   0.0000   0.0000   0.3458
  10.000   1.1090   0.10461   0.09151  -0.1228  0.4154  1.0000  -1.5438   0.0000   0.0000   0.0000   0.3458
  10.100   1.1173   0.10510   0.09205  -0.1226  0.4126  1.0000  -1.5596   0.0000   0.0000   0.0000   0.3446
  10.200   1.1296   0.10515   0.09216  -0.1223  0.4105  1.0000  -1.5829   0.0000   0.0000   0.0000   0.3429
  10.300   1.1221   0.10750   0.09454  -0.1227  0.4059  1.0000  -1.5685   0.0000   0.0000   0.0000   0.3438
  10.400   1.1197   0.10925   0.09633  -0.1228  0.4016  1.0000  -1.5635   0.0000   0.0000   0.0000   0.3441
  10.500   1.1269   0.10987   0.09705  -0.1227  0.3987  1.0000  -1.5781   0.0000   0.0000   0.0000   0.3431
  10.600   1.1386   0.10995   0.09719  -0.1224  0.3965  1.0000  -1.6018   0.0000   0.0000   0.0000   0.3414
  10.700   1.1351   0.11186   0.09914  -0.1226  0.3925  1.0000  -1.5951   0.0000   0.0000   0.0000   0.3419
  10.800   1.1296   0.11402   0.10133  -0.1231  0.3882  1.0000  -1.5838   0.0000   0.0000   0.0000   0.3427
  10.900   1.1350   0.11487   0.10224  -0.1230  0.3853  1.0000  -1.5947   0.0000   0.0000   0.0000   0.3419
  11.000   1.1452   0.11515   0.10258  -0.1227  0.3830  1.0000  -1.6157   0.0000   0.0000   0.0000   0.3405
  11.100   1.1575   0.11516   0.10265  -0.1223  0.3811  1.0000  -1.6422   0.0000   0.0000   0.0000   0.3388
  11.200   1.1393   0.11886   0.10636  -0.1234  0.3754  1.0000  -1.6044   0.0000   0.0000   0.0000   0.3414
  11.300   1.1427   0.11995   0.10751  -0.1235  0.3722  1.0000  -1.6118   0.0000   0.0000   0.0000   0.3410
  11.400   1.1510   0.12046   0.10807  -0.1233  0.3699  1.0000  -1.6297   0.0000   0.0000   0.0000   0.3398
  11.500   1.1625   0.12059   0.10828  -0.1230  0.3680  1.0000  -1.6554   0.0000   0.0000   0.0000   0.3383
  11.600   1.1507   0.12358   0.11127  -0.1239  0.3635  1.0000  -1.6300   0.0000   0.0000   0.0000   0.3401
  11.700   1.1493   0.12524   0.11298  -0.1243  0.3600  1.0000  -1.6275   0.0000   0.0000   0.0000   0.3404
  11.800   1.1554   0.12601   0.11381  -0.1242  0.3573  1.0000  -1.6417   0.0000   0.0000   0.0000   0.3396
  11.900   1.1655   0.12629   0.11416  -0.1239  0.3552  1.0000  -1.6659   0.0000   0.0000   0.0000   0.3382
  12.000   1.1682   0.12750   0.11541  -0.1241  0.3525  1.0000  -1.6735   0.0000   0.0000   0.0000   0.3379
  12.100   1.1580   0.13030   0.11823  -0.1251  0.3485  1.0000  -1.6503   0.0000   0.0000   0.0000   0.3396
  12.200   1.1597   0.13163   0.11962  -0.1254  0.3456  1.0000  -1.6549   0.0000   0.0000   0.0000   0.3395
  12.300   1.1666   0.13231   0.12036  -0.1253  0.3432  1.0000  -1.6734   0.0000   0.0000   0.0000   0.3386
  12.400   1.1772   0.13252   0.12070  -0.1250  0.3412  1.0000  -1.7015   0.0000   0.0000   0.0000   0.3371
  12.500   1.1720   0.13470   0.12290  -0.1257  0.3379  1.0000  -1.6909   0.0000   0.0000   0.0000   0.3381
  12.600   1.1670   0.13684   0.12507  -0.1265  0.3344  1.0000  -1.6801   0.0000   0.0000   0.0000   0.3392
  12.700   1.1695   0.13807   0.12635  -0.1268  0.3318  1.0000  -1.6889   0.0000   0.0000   0.0000   0.3390
  12.800   1.1763   0.13879   0.12714  -0.1267  0.3296  1.0000  -1.7234   0.0000   0.0000   0.0000   0.3381
  12.900   1.1866   0.13907   0.12751  -0.1264  0.3277  1.0000  -1.8079   0.0000   0.0000   0.0000   0.3366
  13.000   1.1804   0.14136   0.12982  -0.1274  0.3245  1.0000  -1.7952   0.0000   0.0000   0.0000   0.3379
  13.100   1.1758   0.14342   0.13190  -0.1282  0.3213  1.0000  -1.7916   0.0000   0.0000   0.0000   0.3389
  13.200   1.1784   0.14462   0.13316  -0.1285  0.3186  1.0000  -1.8305   0.0000   0.0000   0.0000   0.3387
  13.300   1.1849   0.14537   0.13398  -0.1285  0.3164  1.0000  -1.8934   0.0000   0.0000   0.0000   0.3379
  13.400   1.1944   0.14577   0.13447  -0.1282  0.3146  1.0000  -1.9754   0.0000   0.0000   0.0000   0.3366
  13.500   1.1904   0.14780   0.13652  -0.1291  0.3119  1.0000  -1.9740   0.0000   0.0000   0.0000   0.3375
  13.600   1.1849   0.14996   0.13871  -0.1301  0.3089  1.0000  -1.9623   0.0000   0.0000   0.0000   0.3388
  13.700   1.1862   0.15130   0.14010  -0.1305  0.3062  1.0000  -1.9932   0.0000   0.0000   0.0000   0.3389
  13.800   1.1919   0.15212   0.14099  -0.1306  0.3039  1.0000  -2.0526   0.0000   0.0000   0.0000   0.3382
  13.900   1.2011   0.15255   0.14151  -0.1303  0.3019  1.0000  -2.1365   0.0000   0.0000   0.0000   0.3368
  14.000   1.2016   0.15404   0.14304  -0.1308  0.2996  1.0000  -2.1669   0.0000   0.0000   0.0000   0.3371
  14.100   1.1946   0.15637   0.14538  -0.1321  0.2968  1.0000  -2.1408   0.0000   0.0000   0.0000   0.3387
  14.200   1.1942   0.15790   0.14696  -0.1327  0.2942  1.0000  -2.1641   0.0000   0.0000   0.0000   0.3391
  14.300   1.1984   0.15890   0.14803  -0.1329  0.2918  1.0000  -2.2220   0.0000   0.0000   0.0000   0.3387
  14.400   1.2065   0.15944   0.14866  -0.1327  0.2896  1.0000  -2.3117   0.0000   0.0000   0.0000   0.3375
  14.500   1.2135   0.16012   0.14945  -0.1326  0.2875  1.0000  -2.3944   0.0000   0.0000   0.0000   0.3366
  14.600   1.2047   0.16263   0.15196  -0.1342  0.2847  1.0000  -2.3499   0.0000   0.0000   0.0000   0.3386
  14.700   1.2030   0.16430   0.15368  -0.1350  0.2822  1.0000  -2.3616   0.0000   0.0000   0.0000   0.3393
  14.800   1.2056   0.16548   0.15492  -0.1354  0.2798  1.0000  -2.4078   0.0000   0.0000   0.0000   0.3391
  14.900   1.2124   0.16617   0.15570  -0.1353  0.2775  1.0000  -2.4888   0.0000   0.0000   0.0000   0.3382
  15.000   1.2239   0.16633   0.15597  -0.1347  0.2754  1.0000  -2.6096   0.0000   0.0000   0.0000   0.3364


