xflr5 v6.59

 Calculated polar for: SF-14

 1 1 Reynolds number fixed          Mach number fixed         

 xtrf =   1.000 (top)        1.000 (bottom)
 Mach =   0.050     Re =     0.030 e 6     Ncrit =   5.000

  alpha     CL        CD       CDp       Cm    Top Xtr Bot Xtr   Cpmin    Chinge    XCp    
 ------- -------- --------- --------- -------- ------- ------- -------- --------- ---------
  -3.000  -0.0421   0.07125   0.06301  -0.0915  0.8359  0.1013  -1.7971   0.0000   0.0000   0.0000  -1.9727
  -2.900  -0.0275   0.06971   0.06135  -0.0938  0.8336  0.1004  -1.7826   0.0000   0.0000   0.0000  -3.2273
  -2.800  -0.0110   0.06811   0.05961  -0.0965  0.8316  0.1002  -1.7655   0.0000   0.0000   0.0000  -8.7040
  -2.700   0.0073   0.06651   0.05783  -0.0994  0.8297  0.1012  -1.7446   0.0000   0.0000   0.0000  14.1865
  -2.600   0.0280   0.06478   0.05587  -0.1029  0.8282  0.1026  -1.7268   0.0000   0.0000   0.0000   3.9921
  -2.500   0.0389   0.06363   0.05453  -0.1045  0.8252  0.1034  -1.7212   0.0000   0.0000   0.0000   2.9813
  -2.400   0.0460   0.06277   0.05357  -0.1051  0.8216  0.1040  -1.7119   0.0000   0.0000   0.0000   2.5755
  -2.300   0.0534   0.06209   0.05279  -0.1053  0.8184  0.1050  -1.6765   0.0000   0.0000   0.0000   2.2538
  -2.200   0.0657   0.06109   0.05166  -0.1065  0.8157  0.1055  -1.6465   0.0000   0.0000   0.0000   1.8967
  -2.100   0.0808   0.05993   0.05031  -0.1082  0.8133  0.1058  -1.6180   0.0000   0.0000   0.0000   1.6106
  -2.000   0.0967   0.05881   0.04899  -0.1099  0.8112  0.1064  -1.5832   0.0000   0.0000   0.0000   1.4038
  -1.900   0.1130   0.05781   0.04781  -0.1116  0.8092  0.1083  -1.5421   0.0000   0.0000   0.0000   1.2514
  -1.800   0.1323   0.05665   0.04635  -0.1138  0.8076  0.1112  -1.5379   0.0000   0.0000   0.0000   1.1219
  -1.700   0.1509   0.05564   0.04511  -0.1157  0.8060  0.1142  -1.5216   0.0000   0.0000   0.0000   1.0270
  -1.600   0.1543   0.05543   0.04483  -0.1151  0.8025  0.1156  -1.5070   0.0000   0.0000   0.0000   1.0053
  -1.500   0.1601   0.05507   0.04436  -0.1148  0.7989  0.1170  -1.4968   0.0000   0.0000   0.0000   0.9762
  -1.400   0.1709   0.05447   0.04356  -0.1154  0.7959  0.1184  -1.4875   0.0000   0.0000   0.0000   0.9331
  -1.300   0.1846   0.05376   0.04257  -0.1163  0.7933  0.1203  -1.4789   0.0000   0.0000   0.0000   0.8871
  -1.200   0.1984   0.05318   0.04178  -0.1172  0.7909  0.1235  -1.4570   0.0000   0.0000   0.0000   0.8468
  -1.100   0.2118   0.05275   0.04123  -0.1178  0.7888  0.1276  -1.4211   0.0000   0.0000   0.0000   0.8119
  -1.000   0.2294   0.05208   0.04019  -0.1191  0.7870  0.1319  -1.4025   0.0000   0.0000   0.0000   0.7743
  -0.900   0.2452   0.05165   0.03961  -0.1200  0.7853  0.1354  -1.3591   0.0000   0.0000   0.0000   0.7439
  -0.800   0.2584   0.05132   0.03896  -0.1206  0.7831  0.1396  -1.3326   0.0000   0.0000   0.0000   0.7207
  -0.700   0.2600   0.05140   0.03890  -0.1196  0.7789  0.1420  -1.3219   0.0000   0.0000   0.0000   0.7137
  -0.600   0.2664   0.05137   0.03884  -0.1192  0.7756  0.1457  -1.2890   0.0000   0.0000   0.0000   0.7009
  -0.500   0.2783   0.05116   0.03834  -0.1195  0.7728  0.1509  -1.2625   0.0000   0.0000   0.0000   0.6826
  -0.400   0.2902   0.05096   0.03806  -0.1198  0.7703  0.1554  -1.2218   0.0000   0.0000   0.0000   0.6656
  -0.300   0.3050   0.05071   0.03754  -0.1205  0.7682  0.1623  -1.1852   0.0000   0.0000   0.0000   0.6474
  -0.200   0.3193   0.05050   0.03724  -0.1211  0.7663  0.1695  -1.1445   0.0000   0.0000   0.0000   0.6312
  -0.100   0.3352   0.05025   0.03685  -0.1218  0.7646  0.1774  -1.1065   0.0000   0.0000   0.0000   0.6152
   0.000   0.3489   0.05011   0.03656  -0.1223  0.7627  0.1860  -1.0716   0.0000   0.0000   0.0000   0.6020
   0.100   0.3468   0.05046   0.03690  -0.1209  0.7583  0.1891  -1.0606   0.0000   0.0000   0.0000   0.5998
   0.200   0.3535   0.05055   0.03688  -0.1205  0.7550  0.1959  -1.0376   0.0000   0.0000   0.0000   0.5919
   0.300   0.3630   0.05055   0.03680  -0.1204  0.7522  0.2046  -1.0061   0.0000   0.0000   0.0000   0.5826
   0.400   0.3745   0.05049   0.03669  -0.1206  0.7497  0.2149  -0.9699   0.0000   0.0000   0.0000   0.5727
   0.500   0.3875   0.05040   0.03653  -0.1210  0.7476  0.2273  -0.9311   0.0000   0.0000   0.0000   0.5626
   0.600   0.4018   0.05028   0.03636  -0.1215  0.7458  0.2425  -0.8895   0.0000   0.0000   0.0000   0.5526
   0.700   0.4166   0.05011   0.03617  -0.1222  0.7442  0.2597  -0.8447   0.0000   0.0000   0.0000   0.5431
   0.800   0.4269   0.05013   0.03617  -0.1222  0.7419  0.2768  -0.8095   0.0000   0.0000   0.0000   0.5360
   0.900   0.4250   0.05055   0.03663  -0.1209  0.7377  0.2844  -0.7972   0.0000   0.0000   0.0000   0.5340
   1.000   0.4310   0.05068   0.03681  -0.1205  0.7345  0.3013  -0.7732   0.0000   0.0000   0.0000   0.5290
   1.100   0.4402   0.05067   0.03689  -0.1205  0.7318  0.3250  -0.7463   0.0000   0.0000   0.0000   0.5229
   1.200   0.4514   0.05054   0.03692  -0.1207  0.7295  0.3591  -0.7535   0.0000   0.0000   0.0000   0.5164
   1.300   0.4637   0.05020   0.03695  -0.1210  0.7276  0.4154  -0.7618   0.0000   0.0000   0.0000   0.5099
   1.400   0.4709   0.04910   0.03697  -0.1200  0.7261  0.6214  -0.7681   0.0000   0.0000   0.0000   0.5035
   1.500   0.4840   0.04890   0.03654  -0.1200  0.7240  1.0000  -0.7761   0.0000   0.0000   0.0000   0.4965
   1.600   0.4878   0.04942   0.03687  -0.1194  0.7209  1.0000  -0.7768   0.0000   0.0000   0.0000   0.4931
   1.700   0.4878   0.05002   0.03734  -0.1183  0.7170  1.0000  -0.7746   0.0000   0.0000   0.0000   0.4908
   1.800   0.4939   0.05047   0.03762  -0.1179  0.7138  1.0000  -0.7778   0.0000   0.0000   0.0000   0.4868
   1.900   0.5029   0.05085   0.03782  -0.1178  0.7112  1.0000  -0.7834   0.0000   0.0000   0.0000   0.4821
   2.000   0.5137   0.05118   0.03797  -0.1179  0.7089  1.0000  -0.7906   0.0000   0.0000   0.0000   0.4772
   2.100   0.5260   0.05148   0.03810  -0.1182  0.7069  1.0000  -0.7991   0.0000   0.0000   0.0000   0.4722
   2.200   0.5394   0.05176   0.03816  -0.1185  0.7052  1.0000  -0.8086   0.0000   0.0000   0.0000   0.4671
   2.300   0.5519   0.05207   0.03831  -0.1188  0.7035  1.0000  -0.8175   0.0000   0.0000   0.0000   0.4625
   2.400   0.5451   0.05291   0.03914  -0.1171  0.6990  1.0000  -0.8092   0.0000   0.0000   0.0000   0.4620
   2.500   0.5487   0.05345   0.03961  -0.1165  0.6957  1.0000  -0.8104   0.0000   0.0000   0.0000   0.4594
   2.600   0.5561   0.05390   0.03995  -0.1163  0.6930  1.0000  -0.8149   0.0000   0.0000   0.0000   0.4560
   2.700   0.5657   0.05428   0.04023  -0.1163  0.6907  1.0000  -0.8216   0.0000   0.0000   0.0000   0.4523
   2.800   0.5768   0.05462   0.04046  -0.1165  0.6886  1.0000  -0.8296   0.0000   0.0000   0.0000   0.4484
   2.900   0.5892   0.05493   0.04066  -0.1167  0.6869  1.0000  -0.8387   0.0000   0.0000   0.0000   0.4445
   3.000   0.6026   0.05521   0.04084  -0.1171  0.6853  1.0000  -0.8488   0.0000   0.0000   0.0000   0.4405
   3.100   0.5989   0.05604   0.04164  -0.1158  0.6815  1.0000  -0.8431   0.0000   0.0000   0.0000   0.4395
   3.200   0.5997   0.05672   0.04229  -0.1150  0.6781  1.0000  -0.8417   0.0000   0.0000   0.0000   0.4378
   3.300   0.6053   0.05725   0.04276  -0.1147  0.6753  1.0000  -0.8449   0.0000   0.0000   0.0000   0.4353
   3.400   0.6137   0.05770   0.04314  -0.1146  0.6729  1.0000  -0.8507   0.0000   0.0000   0.0000   0.4324
   3.500   0.6239   0.05808   0.04345  -0.1147  0.6708  1.0000  -0.8582   0.0000   0.0000   0.0000   0.4293
   3.600   0.6354   0.05843   0.04373  -0.1148  0.6690  1.0000  -0.8670   0.0000   0.0000   0.0000   0.4261
   3.700   0.6480   0.05875   0.04398  -0.1151  0.6674  1.0000  -0.8768   0.0000   0.0000   0.0000   0.4229
   3.800   0.6512   0.05941   0.04460  -0.1146  0.6647  1.0000  -0.8775   0.0000   0.0000   0.0000   0.4211
   3.900   0.6480   0.06028   0.04546  -0.1135  0.6609  1.0000  -0.8723   0.0000   0.0000   0.0000   0.4202
   4.000   0.6517   0.06091   0.04606  -0.1130  0.6580  1.0000  -0.8738   0.0000   0.0000   0.0000   0.4183
   4.100   0.6586   0.06143   0.04655  -0.1128  0.6555  1.0000  -0.8785   0.0000   0.0000   0.0000   0.4160
   4.200   0.6677   0.06188   0.04695  -0.1128  0.6533  1.0000  -0.8852   0.0000   0.0000   0.0000   0.4135
   4.300   0.6784   0.06228   0.04731  -0.1129  0.6514  1.0000  -0.8936   0.0000   0.0000   0.0000   0.4109
   4.400   0.6903   0.06264   0.04762  -0.1131  0.6498  1.0000  -0.9031   0.0000   0.0000   0.0000   0.4082
   4.500   0.7031   0.06297   0.04790  -0.1134  0.6484  1.0000  -0.9135   0.0000   0.0000   0.0000   0.4055
   4.600   0.6943   0.06412   0.04907  -0.1120  0.6442  1.0000  -0.9028   0.0000   0.0000   0.0000   0.4054
   4.700   0.6957   0.06489   0.04982  -0.1114  0.6411  1.0000  -0.9021   0.0000   0.0000   0.0000   0.4041
   4.800   0.7011   0.06550   0.05041  -0.1111  0.6385  1.0000  -0.9054   0.0000   0.0000   0.0000   0.4023
   4.900   0.7090   0.06601   0.05090  -0.1110  0.6363  1.0000  -0.9113   0.0000   0.0000   0.0000   0.4002
   5.000   0.7186   0.06647   0.05132  -0.1110  0.6343  1.0000  -0.9189   0.0000   0.0000   0.0000   0.3980
   5.100   0.7297   0.06688   0.05170  -0.1112  0.6326  1.0000  -0.9280   0.0000   0.0000   0.0000   0.3957
   5.200   0.7419   0.06725   0.05205  -0.1114  0.6311  1.0000  -0.9385   0.0000   0.0000   0.0000   0.3934
   5.300   0.7387   0.06826   0.05306  -0.1105  0.6279  1.0000  -0.9332   0.0000   0.0000   0.0000   0.3927
   5.400   0.7372   0.06918   0.05399  -0.1098  0.6246  1.0000  -0.9296   0.0000   0.0000   0.0000   0.3919
   5.500   0.7411   0.06989   0.05469  -0.1095  0.6218  1.0000  -0.9316   0.0000   0.0000   0.0000   0.3905
   5.600   0.7479   0.07048   0.05527  -0.1093  0.6195  1.0000  -0.9365   0.0000   0.0000   0.0000   0.3889
   5.700   0.7567   0.07099   0.05578  -0.1093  0.6174  1.0000  -0.9436   0.0000   0.0000   0.0000   0.3870
   5.800   0.7670   0.07145   0.05623  -0.1094  0.6157  1.0000  -0.9525   0.0000   0.0000   0.0000   0.3850
   5.900   0.7784   0.07188   0.05664  -0.1095  0.6141  1.0000  -0.9628   0.0000   0.0000   0.0000   0.3830
   6.000   0.7817   0.07267   0.05743  -0.1092  0.6117  1.0000  -0.9643   0.0000   0.0000   0.0000   0.3818
   6.100   0.7768   0.07379   0.05864  -0.1083  0.6082  1.0000  -0.9570   0.0000   0.0000   0.0000   0.3815
   6.200   0.7791   0.07460   0.05946  -0.1079  0.6053  1.0000  -0.9573   0.0000   0.0000   0.0000   0.3804
   6.300   0.7849   0.07527   0.06014  -0.1077  0.6029  1.0000  -0.9615   0.0000   0.0000   0.0000   0.3790
   6.400   0.7928   0.07584   0.06072  -0.1077  0.6007  1.0000  -0.9684   0.0000   0.0000   0.0000   0.3774
   6.500   0.8024   0.07636   0.06124  -0.1077  0.5989  1.0000  -0.9771   0.0000   0.0000   0.0000   0.3757
   6.600   0.8133   0.07683   0.06172  -0.1078  0.5973  1.0000  -0.9872   0.0000   0.0000   0.0000   0.3739
   6.700   0.8226   0.07738   0.06228  -0.1079  0.5957  1.0000  -0.9956   0.0000   0.0000   0.0000   0.3723
   6.800   0.8140   0.07874   0.06366  -0.1069  0.5918  1.0000  -0.9838   0.0000   0.0000   0.0000   0.3724
   6.900   0.8151   0.07964   0.06459  -0.1065  0.5888  1.0000  -0.9834   0.0000   0.0000   0.0000   0.3716
   7.000   0.8200   0.08038   0.06534  -0.1063  0.5863  1.0000  -0.9873   0.0000   0.0000   0.0000   0.3704
   7.100   0.8274   0.08101   0.06599  -0.1062  0.5841  1.0000  -0.9938   0.0000   0.0000   0.0000   0.3690
   7.200   0.8364   0.08158   0.06659  -0.1062  0.5822  1.0000  -1.0021   0.0000   0.0000   0.0000   0.3675
   7.300   0.8467   0.08210   0.06713  -0.1063  0.5806  1.0000  -1.0121   0.0000   0.0000   0.0000   0.3659
   7.400   0.8586   0.08256   0.06762  -0.1065  0.5792  1.0000  -1.0243   0.0000   0.0000   0.0000   0.3642
   7.500   0.8482   0.08405   0.06913  -0.1056  0.5751  1.0000  -1.0107   0.0000   0.0000   0.0000   0.3646
   7.600   0.8488   0.08501   0.07013  -0.1052  0.5721  1.0000  -1.0098   0.0000   0.0000   0.0000   0.3639
   7.700   0.8535   0.08580   0.07100  -0.1050  0.5696  1.0000  -1.0135   0.0000   0.0000   0.0000   0.3629
   7.800   0.8605   0.08649   0.07172  -0.1050  0.5674  1.0000  -1.0202   0.0000   0.0000   0.0000   0.3617
   7.900   0.8692   0.08710   0.07237  -0.1050  0.5656  1.0000  -1.0292   0.0000   0.0000   0.0000   0.3603
   8.000   0.8797   0.08764   0.07294  -0.1051  0.5639  1.0000  -1.0402   0.0000   0.0000   0.0000   0.3588
   8.100   0.8870   0.08833   0.07366  -0.1050  0.5619  1.0000  -1.0475   0.0000   0.0000   0.0000   0.3576
   8.200   0.8793   0.08974   0.07511  -0.1044  0.5580  1.0000  -1.0371   0.0000   0.0000   0.0000   0.3578
   8.300   0.8806   0.09071   0.07612  -0.1041  0.5551  1.0000  -1.0376   0.0000   0.0000   0.0000   0.3572
   8.400   0.8855   0.09153   0.07698  -0.1040  0.5527  1.0000  -1.0422   0.0000   0.0000   0.0000   0.3562
   8.500   0.8927   0.09224   0.07773  -0.1040  0.5506  1.0000  -1.0498   0.0000   0.0000   0.0000   0.3551
   8.600   0.9020   0.09284   0.07839  -0.1040  0.5487  1.0000  -1.0605   0.0000   0.0000   0.0000   0.3538
   8.700   0.9132   0.09336   0.07895  -0.1041  0.5470  1.0000  -1.0735   0.0000   0.0000   0.0000   0.3523
   8.800   0.9108   0.09456   0.08018  -0.1037  0.5438  1.0000  -1.0700   0.0000   0.0000   0.0000   0.3521
   8.900   0.9081   0.09577   0.08144  -0.1034  0.5405  1.0000  -1.0660   0.0000   0.0000   0.0000   0.3519
   9.000   0.9109   0.09671   0.08243  -0.1032  0.5378  1.0000  -1.0691   0.0000   0.0000   0.0000   0.3512
   9.100   0.9169   0.09750   0.08327  -0.1032  0.5354  1.0000  -1.0814   0.0000   0.0000   0.0000   0.3503
   9.200   0.9254   0.09816   0.08399  -0.1032  0.5333  1.0000  -1.1062   0.0000   0.0000   0.0000   0.3491
   9.300   0.9359   0.09871   0.08467  -0.1033  0.5314  1.0000  -1.1367   0.0000   0.0000   0.0000   0.3477
   9.400   0.9410   0.09956   0.08556  -0.1032  0.5291  1.0000  -1.1579   0.0000   0.0000   0.0000   0.3469
   9.500   0.9346   0.10100   0.08705  -0.1028  0.5254  1.0000  -1.1548   0.0000   0.0000   0.0000   0.3471
   9.600   0.9361   0.10204   0.08814  -0.1027  0.5224  1.0000  -1.1684   0.0000   0.0000   0.0000   0.3466
   9.700   0.9415   0.10286   0.08902  -0.1026  0.5198  1.0000  -1.1921   0.0000   0.0000   0.0000   0.3458
   9.800   0.9498   0.10354   0.08977  -0.1026  0.5176  1.0000  -1.2228   0.0000   0.0000   0.0000   0.3447
   9.900   0.9603   0.10411   0.09042  -0.1027  0.5156  1.0000  -1.2590   0.0000   0.0000   0.0000   0.3434
  10.000   0.9651   0.10500   0.09136  -0.1026  0.5132  1.0000  -1.2843   0.0000   0.0000   0.0000   0.3426
  10.100   0.9587   0.10646   0.09287  -0.1023  0.5094  1.0000  -1.2815   0.0000   0.0000   0.0000   0.3429
  10.200   0.9607   0.10747   0.09395  -0.1022  0.5063  1.0000  -1.2996   0.0000   0.0000   0.0000   0.3425
  10.300   0.9667   0.10827   0.09482  -0.1022  0.5036  1.0000  -1.3284   0.0000   0.0000   0.0000   0.3416
  10.400   0.9757   0.10892   0.09555  -0.1022  0.5013  1.0000  -1.3650   0.0000   0.0000   0.0000   0.3405
  10.500   0.9871   0.10945   0.09617  -0.1023  0.4994  1.0000  -1.4103   0.0000   0.0000   0.0000   0.3391
  10.600   0.9829   0.11083   0.09759  -0.1021  0.4958  1.0000  -1.4133   0.0000   0.0000   0.0000   0.3393
  10.700   0.9812   0.11204   0.09885  -0.1020  0.4922  1.0000  -1.4233   0.0000   0.0000   0.0000   0.3392
  10.800   0.9856   0.11293   0.09982  -0.1020  0.4892  1.0000  -1.4511   0.0000   0.0000   0.0000   0.3385
  10.900   0.9938   0.11362   0.10065  -0.1019  0.4866  1.0000  -1.4902   0.0000   0.0000   0.0000   0.3375
  11.000   1.0050   0.11415   0.10128  -0.1020  0.4844  1.0000  -1.5385   0.0000   0.0000   0.0000   0.3362
  11.100   1.0044   0.11533   0.10252  -0.1019  0.4810  1.0000  -1.5518   0.0000   0.0000   0.0000   0.3360
  11.200   1.0013   0.11661   0.10386  -0.1018  0.4771  1.0000  -1.5573   0.0000   0.0000   0.0000   0.3361
  11.300   1.0057   0.11749   0.10482  -0.1018  0.4738  1.0000  -1.5856   0.0000   0.0000   0.0000   0.3355
  11.400   1.0146   0.11812   0.10555  -0.1018  0.4710  1.0000  -1.6311   0.0000   0.0000   0.0000   0.3344
  11.500   1.0270   0.11857   0.10612  -0.1017  0.4688  1.0000  -1.6969   0.0000   0.0000   0.0000   0.3329
  11.600   1.0206   0.12005   0.10763  -0.1017  0.4644  1.0000  -1.6942   0.0000   0.0000   0.0000   0.3334
  11.700   1.0210   0.12112   0.10878  -0.1017  0.4605  1.0000  -1.7264   0.0000   0.0000   0.0000   0.3332
  11.800   1.0282   0.12182   0.10958  -0.1017  0.4572  1.0000  -1.7948   0.0000   0.0000   0.0000   0.3322
  11.900   1.0401   0.12226   0.11014  -0.1016  0.4545  1.0000  -1.8898   0.0000   0.0000   0.0000   0.3308
  12.000   1.0390   0.12342   0.11137  -0.1016  0.4504  1.0000  -1.9147   0.0000   0.0000   0.0000   0.3308
  12.100   1.0376   0.12458   0.11259  -0.1016  0.4459  1.0000  -1.9373   0.0000   0.0000   0.0000   0.3308
  12.200   1.0451   0.12522   0.11335  -0.1015  0.4423  1.0000  -2.0097   0.0000   0.0000   0.0000   0.3298
  12.300   1.0591   0.12544   0.11371  -0.1013  0.4393  1.0000  -2.1202   0.0000   0.0000   0.0000   0.3281
  12.400   1.0529   0.12689   0.11519  -0.1014  0.4343  1.0000  -2.1158   0.0000   0.0000   0.0000   0.3286
  12.500   1.0556   0.12776   0.11621  -0.1014  0.4297  1.0000  -2.1629   0.0000   0.0000   0.0000   0.3281
  12.600   1.0680   0.12798   0.11658  -0.1011  0.4259  1.0000  -2.2679   0.0000   0.0000   0.0000   0.3266
  12.700   1.0691   0.12892   0.11760  -0.1011  0.4211  1.0000  -2.3061   0.0000   0.0000   0.0000   0.3263
  12.800   1.0692   0.12990   0.11866  -0.1011  0.4157  1.0000  -2.3384   0.0000   0.0000   0.0000   0.3261
  12.900   1.0836   0.12981   0.11873  -0.1006  0.4113  1.0000  -2.4589   0.0000   0.0000   0.0000   0.3242
  13.000   1.0811   0.13094   0.11993  -0.1007  0.4055  1.0000  -2.4754   0.0000   0.0000   0.0000   0.3243
  13.100   1.0870   0.13137   0.12048  -0.1004  0.3997  1.0000  -2.5445   0.0000   0.0000   0.0000   0.3233
  13.200   1.0985   0.13123   0.12049  -0.0999  0.3941  1.0000  -2.6519   0.0000   0.0000   0.0000   0.3216
  13.300   1.0963   0.13225   0.12158  -0.0999  0.3872  1.0000  -2.6701   0.0000   0.0000   0.0000   0.3217
  13.400   1.1118   0.13146   0.12098  -0.0990  0.3806  1.0000  -2.8082   0.0000   0.0000   0.0000   0.3193
  13.500   1.1091   0.13247   0.12205  -0.0990  0.3731  1.0000  -2.8237   0.0000   0.0000   0.0000   0.3193
  13.600   1.1192   0.13198   0.12172  -0.0982  0.3654  1.0000  -2.9287   0.0000   0.0000   0.0000   0.3176
  13.700   1.1301   0.13116   0.12108  -0.0973  0.3566  1.0000  -3.0425   0.0000   0.0000   0.0000   0.3156
  14.000   1.1546   0.12889   0.11931  -0.0944  0.3281  1.0000  -3.3400   0.0000   0.0000   0.0000   0.3105
  14.100   1.1502   0.13011   0.12059  -0.0946  0.3190  1.0000  -3.3434   0.0000   0.0000   0.0000   0.3107
  14.200   1.1524   0.13023   0.12082  -0.0942  0.3091  1.0000  -3.4071   0.0000   0.0000   0.0000   0.3100
  14.300   1.1585   0.12963   0.12036  -0.0933  0.2982  1.0000  -3.5069   0.0000   0.0000   0.0000   0.3085
  14.400   1.1647   0.12893   0.11981  -0.0924  0.2868  1.0000  -3.6101   0.0000   0.0000   0.0000   0.3070
  14.500   1.1704   0.12832   0.11935  -0.0915  0.2749  1.0000  -3.7083   0.0000   0.0000   0.0000   0.3056
  14.600   1.1754   0.12785   0.11901  -0.0907  0.2625  1.0000  -3.8003   0.0000   0.0000   0.0000   0.3043
  14.700   1.1805   0.12735   0.11864  -0.0899  0.2494  1.0000  -3.8933   0.0000   0.0000   0.0000   0.3030
  14.800   1.1888   0.12609   0.11754  -0.0887  0.2349  1.0000  -4.0203   0.0000   0.0000   0.0000   0.3010
  14.900   1.2023   0.12350   0.11516  -0.0865  0.2178  1.0000  -4.2037   0.0000   0.0000   0.0000   0.2980
  15.000   1.2189   0.12037   0.11207  -0.0840  0.1964  1.0000  -4.4149   0.0000   0.0000   0.0000   0.2945


