xflr5 v6.59

 Calculated polar for: SF-2

 1 1 Reynolds number fixed          Mach number fixed         

 xtrf =   1.000 (top)        1.000 (bottom)
 Mach =   0.050     Re =     0.200 e 6     Ncrit =   9.000

  alpha     CL        CD       CDp       Cm    Top Xtr Bot Xtr   Cpmin    Chinge    XCp    
 ------- -------- --------- --------- -------- ------- ------- -------- --------- ---------
  -5.000  -0.1939   0.02107   0.01470  -0.0726  0.9198  0.0178  -3.7811   0.0000   0.0000   0.0000  -0.1323
  -4.900  -0.1842   0.02034   0.01382  -0.0722  0.9120  0.0189  -3.7672   0.0000   0.0000   0.0000  -0.1503
  -4.800  -0.1730   0.01898   0.01211  -0.0719  0.9061  0.0212  -3.8829   0.0000   0.0000   0.0000  -0.1741
  -4.750  -0.1666   0.01893   0.01207  -0.0721  0.9034  0.0225  -3.8219   0.0000   0.0000   0.0000  -0.1915
  -4.700  -0.1604   0.01858   0.01156  -0.0721  0.9009  0.0250  -3.8334   0.0000   0.0000   0.0000  -0.2086
  -4.600  -0.1485   0.01874   0.01169  -0.0724  0.8951  0.0294  -3.6710   0.0000   0.0000   0.0000  -0.2468
  -4.500  -0.1390   0.01885   0.01173  -0.0722  0.8871  0.0339  -3.5378   0.0000   0.0000   0.0000  -0.2788
  -4.400  -0.1283   0.01889   0.01170  -0.0721  0.8807  0.0377  -3.4082   0.0000   0.0000   0.0000  -0.3219
  -4.300  -0.1176   0.01883   0.01170  -0.0722  0.8753  0.0416  -3.2414   0.0000   0.0000   0.0000  -0.3743
  -4.250  -0.1123   0.01876   0.01140  -0.0719  0.8723  0.0435  -3.2217   0.0000   0.0000   0.0000  -0.4009
  -4.200  -0.1080   0.01842   0.01109  -0.0718  0.8685  0.0447  -3.1677   0.0000   0.0000   0.0000  -0.4262
  -4.100  -0.0981   0.01814   0.01084  -0.0715  0.8617  0.0468  -3.0481   0.0000   0.0000   0.0000  -0.4913
  -4.000  -0.0875   0.01758   0.01013  -0.0711  0.8562  0.0476  -2.9795   0.0000   0.0000   0.0000  -0.5757
  -3.900  -0.0767   0.01709   0.00947  -0.0707  0.8515  0.0486  -2.9046   0.0000   0.0000   0.0000  -0.6871
  -3.800  -0.0667   0.01670   0.00893  -0.0703  0.8449  0.0501  -2.8235   0.0000   0.0000   0.0000  -0.8210
  -3.750  -0.0618   0.01644   0.00871  -0.0702  0.8418  0.0509  -2.7671   0.0000   0.0000   0.0000  -0.9026
  -3.700  -0.0569   0.01628   0.00855  -0.0701  0.8389  0.0517  -2.7099   0.0000   0.0000   0.0000  -1.0013
  -3.600  -0.0465   0.01596   0.00817  -0.0697  0.8339  0.0532  -2.6067   0.0000   0.0000   0.0000  -1.2717
  -3.500  -0.0359   0.01561   0.00773  -0.0694  0.8296  0.0545  -2.5132   0.0000   0.0000   0.0000  -1.7084
  -3.400  -0.0257   0.01531   0.00734  -0.0690  0.8236  0.0558  -2.4231   0.0000   0.0000   0.0000  -2.4789
  -3.300  -0.0159   0.01488   0.00693  -0.0687  0.8183  0.0574  -2.3232   0.0000   0.0000   0.0000  -4.1321
  -3.250  -0.0109   0.01475   0.00681  -0.0686  0.8159  0.0586  -2.2676   0.0000   0.0000   0.0000  -6.1078
  -3.200  -0.0058   0.01465   0.00668  -0.0684  0.8136  0.0598  -2.2145   0.0000   0.0000   0.0000  -11.6170
  -3.100   0.0046   0.01446   0.00639  -0.0681  0.8096  0.0624  -2.1133   0.0000   0.0000   0.0000  15.2476
  -3.000   0.0142   0.01410   0.00607  -0.0678  0.8045  0.0646  -2.0152   0.0000   0.0000   0.0000   5.0699
  -2.900   0.0241   0.01386   0.00584  -0.0675  0.7994  0.0672  -1.9142   0.0000   0.0000   0.0000   3.0828
  -2.800   0.0343   0.01367   0.00558  -0.0671  0.7949  0.0707  -1.8166   0.0000   0.0000   0.0000   2.2312
  -2.750   0.0389   0.01350   0.00545  -0.0670  0.7930  0.0725  -1.7658   0.0000   0.0000   0.0000   1.9909
  -2.700   0.0439   0.01341   0.00535  -0.0668  0.7911  0.0747  -1.7138   0.0000   0.0000   0.0000   1.7891
  -2.600   0.0540   0.01320   0.00512  -0.0665  0.7872  0.0793  -1.6201   0.0000   0.0000   0.0000   1.4969
  -2.500   0.0638   0.01298   0.00493  -0.0663  0.7825  0.0847  -1.5357   0.0000   0.0000   0.0000   1.3006
  -2.400   0.0736   0.01276   0.00473  -0.0660  0.7782  0.0917  -1.4525   0.0000   0.0000   0.0000   1.1565
  -2.300   0.0835   0.01254   0.00453  -0.0657  0.7744  0.1014  -1.3709   0.0000   0.0000   0.0000   1.0454
  -2.250   0.0884   0.01242   0.00442  -0.0656  0.7727  0.1078  -1.3317   0.0000   0.0000   0.0000   0.9993
  -2.200   0.0933   0.01230   0.00432  -0.0654  0.7711  0.1165  -1.2945   0.0000   0.0000   0.0000   0.9579
  -2.100   0.1025   0.01191   0.00411  -0.0652  0.7676  0.1539  -1.2539   0.0000   0.0000   0.0000   0.8915
  -2.000   0.1074   0.01089   0.00401  -0.0646  0.7635  0.3744  -1.2224   0.0000   0.0000   0.0000   0.8566
  -1.900   0.1121   0.01024   0.00403  -0.0634  0.7597  0.5522  -1.1837   0.0000   0.0000   0.0000   0.8206
  -1.800   0.1178   0.00986   0.00405  -0.0620  0.7562  0.6635  -1.1394   0.0000   0.0000   0.0000   0.7810
  -1.750   0.1209   0.00971   0.00405  -0.0613  0.7547  0.7106  -1.1162   0.0000   0.0000   0.0000   0.7612
  -1.700   0.1243   0.00958   0.00406  -0.0605  0.7532  0.7562  -1.0919   0.0000   0.0000   0.0000   0.7410
  -1.600   0.1391   0.00939   0.00410  -0.0604  0.7506  0.8599  -1.0212   0.0000   0.0000   0.0000   0.6876
  -1.500   0.1793   0.00934   0.00406  -0.0658  0.7471  0.9403  -0.8867   0.0000   0.0000   0.0000   0.6194
  -1.400   0.2111   0.00938   0.00401  -0.0699  0.7435  0.9669  -0.7868   0.0000   0.0000   0.0000   0.5827
  -1.300   0.2414   0.00941   0.00393  -0.0737  0.7402  0.9845  -0.6924   0.0000   0.0000   0.0000   0.5568
  -1.250   0.2576   0.00941   0.00387  -0.0759  0.7386  0.9916  -0.6435   0.0000   0.0000   0.0000   0.5459
  -1.200   0.2740   0.00942   0.00382  -0.0781  0.7371  0.9969  -0.5949   0.0000   0.0000   0.0000   0.5362
  -1.100   0.2920   0.00944   0.00375  -0.0796  0.7342  1.0000  -0.5804   0.0000   0.0000   0.0000   0.5234
  -1.000   0.2998   0.00947   0.00371  -0.0790  0.7313  1.0000  -0.5854   0.0000   0.0000   0.0000   0.5142
  -0.900   0.3077   0.00949   0.00369  -0.0785  0.7276  1.0000  -0.5902   0.0000   0.0000   0.0000   0.5055
  -0.800   0.3158   0.00951   0.00367  -0.0779  0.7242  1.0000  -0.5953   0.0000   0.0000   0.0000   0.4972
  -0.750   0.3199   0.00953   0.00366  -0.0777  0.7225  1.0000  -0.5978   0.0000   0.0000   0.0000   0.4931
  -0.700   0.3241   0.00954   0.00364  -0.0774  0.7210  1.0000  -0.6005   0.0000   0.0000   0.0000   0.4891
  -0.600   0.3326   0.00957   0.00361  -0.0769  0.7181  1.0000  -0.6058   0.0000   0.0000   0.0000   0.4814
  -0.500   0.3413   0.00962   0.00358  -0.0764  0.7156  1.0000  -0.6113   0.0000   0.0000   0.0000   0.4740
  -0.400   0.3501   0.00967   0.00358  -0.0760  0.7129  1.0000  -0.6167   0.0000   0.0000   0.0000   0.4670
  -0.300   0.3589   0.00971   0.00360  -0.0756  0.7097  1.0000  -0.6220   0.0000   0.0000   0.0000   0.4605
  -0.250   0.3633   0.00973   0.00360  -0.0754  0.7082  1.0000  -0.6249   0.0000   0.0000   0.0000   0.4573
  -0.200   0.3678   0.00975   0.00361  -0.0752  0.7067  1.0000  -0.6277   0.0000   0.0000   0.0000   0.4542
  -0.100   0.3769   0.00979   0.00361  -0.0748  0.7039  1.0000  -0.6336   0.0000   0.0000   0.0000   0.4481
   0.000   0.3861   0.00984   0.00361  -0.0745  0.7014  1.0000  -0.6395   0.0000   0.0000   0.0000   0.4423
   0.100   0.3954   0.00989   0.00360  -0.0741  0.6991  1.0000  -0.6456   0.0000   0.0000   0.0000   0.4367
   0.200   0.4047   0.00996   0.00361  -0.0737  0.6969  1.0000  -0.6517   0.0000   0.0000   0.0000   0.4314
   0.250   0.4093   0.00999   0.00364  -0.0736  0.6954  1.0000  -0.6545   0.0000   0.0000   0.0000   0.4289
   0.300   0.4139   0.01001   0.00366  -0.0734  0.6938  1.0000  -0.6573   0.0000   0.0000   0.0000   0.4265
   0.400   0.4233   0.01006   0.00369  -0.0731  0.6909  1.0000  -0.6631   0.0000   0.0000   0.0000   0.4217
   0.500   0.4327   0.01011   0.00371  -0.0727  0.6882  1.0000  -0.6691   0.0000   0.0000   0.0000   0.4171
   0.600   0.4423   0.01016   0.00373  -0.0724  0.6857  1.0000  -0.6752   0.0000   0.0000   0.0000   0.4127
   0.700   0.4519   0.01022   0.00375  -0.0721  0.6835  1.0000  -0.6814   0.0000   0.0000   0.0000   0.4084
   0.750   0.4568   0.01025   0.00376  -0.0720  0.6825  1.0000  -0.6845   0.0000   0.0000   0.0000   0.4063
   0.800   0.4617   0.01029   0.00377  -0.0718  0.6815  1.0000  -0.6877   0.0000   0.0000   0.0000   0.4043
   0.900   0.4714   0.01037   0.00381  -0.0716  0.6795  1.0000  -0.6938   0.0000   0.0000   0.0000   0.4004
   1.000   0.4810   0.01043   0.00388  -0.0713  0.6768  1.0000  -0.6995   0.0000   0.0000   0.0000   0.3968
   1.100   0.4906   0.01049   0.00394  -0.0711  0.6742  1.0000  -0.7055   0.0000   0.0000   0.0000   0.3933
   1.200   0.5004   0.01055   0.00399  -0.0708  0.6717  1.0000  -0.7119   0.0000   0.0000   0.0000   0.3898
   1.250   0.5053   0.01058   0.00401  -0.0707  0.6705  1.0000  -0.7152   0.0000   0.0000   0.0000   0.3882
   1.300   0.5102   0.01062   0.00403  -0.0705  0.6694  1.0000  -0.7184   0.0000   0.0000   0.0000   0.3865
   1.400   0.5201   0.01068   0.00406  -0.0703  0.6673  1.0000  -0.7251   0.0000   0.0000   0.0000   0.3833
   1.500   0.5302   0.01075   0.00410  -0.0700  0.6653  1.0000  -0.7318   0.0000   0.0000   0.0000   0.3802
   1.600   0.5403   0.01085   0.00415  -0.0698  0.6636  1.0000  -0.7386   0.0000   0.0000   0.0000   0.3772
   1.700   0.5499   0.01091   0.00425  -0.0696  0.6610  1.0000  -0.7446   0.0000   0.0000   0.0000   0.3745
   1.750   0.5548   0.01095   0.00429  -0.0695  0.6597  1.0000  -0.7477   0.0000   0.0000   0.0000   0.3731
   1.800   0.5597   0.01098   0.00433  -0.0694  0.6585  1.0000  -0.7509   0.0000   0.0000   0.0000   0.3718
   1.900   0.5696   0.01106   0.00440  -0.0691  0.6562  1.0000  -0.7572   0.0000   0.0000   0.0000   0.3692
   2.000   0.5796   0.01113   0.00447  -0.0689  0.6541  1.0000  -0.7637   0.0000   0.0000   0.0000   0.3666
   2.100   0.5897   0.01120   0.00453  -0.0687  0.6521  1.0000  -0.7704   0.0000   0.0000   0.0000   0.3642
   2.200   0.5999   0.01128   0.00459  -0.0685  0.6503  1.0000  -0.7775   0.0000   0.0000   0.0000   0.3618
   2.250   0.6050   0.01132   0.00461  -0.0684  0.6495  1.0000  -0.7824   0.0000   0.0000   0.0000   0.3606
   2.300   0.6101   0.01137   0.00464  -0.0683  0.6486  1.0000  -0.7957   0.0000   0.0000   0.0000   0.3594
   2.400   0.6203   0.01147   0.00473  -0.0681  0.6468  1.0000  -0.8224   0.0000   0.0000   0.0000   0.3572
   2.500   0.6300   0.01154   0.00484  -0.0679  0.6443  1.0000  -0.8491   0.0000   0.0000   0.0000   0.3551
   2.600   0.6399   0.01163   0.00495  -0.0677  0.6419  1.0000  -0.8777   0.0000   0.0000   0.0000   0.3530
   2.700   0.6499   0.01171   0.00506  -0.0675  0.6397  1.0000  -0.9069   0.0000   0.0000   0.0000   0.3510
   2.750   0.6549   0.01175   0.00510  -0.0674  0.6387  1.0000  -0.9216   0.0000   0.0000   0.0000   0.3500
   2.800   0.6600   0.01179   0.00515  -0.0674  0.6377  1.0000  -0.9368   0.0000   0.0000   0.0000   0.3491
   2.900   0.6703   0.01187   0.00523  -0.0672  0.6359  1.0000  -0.9693   0.0000   0.0000   0.0000   0.3471
   3.000   0.6806   0.01196   0.00531  -0.0670  0.6342  1.0000  -1.0024   0.0000   0.0000   0.0000   0.3453
   3.100   0.6911   0.01205   0.00538  -0.0669  0.6327  1.0000  -1.0358   0.0000   0.0000   0.0000   0.3435
   3.200   0.7015   0.01216   0.00548  -0.0667  0.6311  1.0000  -1.0707   0.0000   0.0000   0.0000   0.3418
   3.250   0.7063   0.01221   0.00556  -0.0666  0.6298  1.0000  -1.0882   0.0000   0.0000   0.0000   0.3409
   3.300   0.7112   0.01225   0.00563  -0.0665  0.6286  1.0000  -1.1058   0.0000   0.0000   0.0000   0.3401
   3.400   0.7210   0.01233   0.00576  -0.0663  0.6258  1.0000  -1.1417   0.0000   0.0000   0.0000   0.3384
   3.500   0.7309   0.01238   0.00583  -0.0661  0.6227  1.0000  -1.1785   0.0000   0.0000   0.0000   0.3368
   3.600   0.7411   0.01240   0.00583  -0.0658  0.6193  1.0000  -1.2164   0.0000   0.0000   0.0000   0.3350
   3.700   0.7518   0.01242   0.00578  -0.0655  0.6159  1.0000  -1.2587   0.0000   0.0000   0.0000   0.3333
   3.750   0.7563   0.01244   0.00583  -0.0653  0.6135  1.0000  -1.2782   0.0000   0.0000   0.0000   0.3325
   3.800   0.7608   0.01244   0.00586  -0.0651  0.6108  1.0000  -1.2980   0.0000   0.0000   0.0000   0.3316
   3.900   0.7705   0.01242   0.00584  -0.0647  0.6058  1.0000  -1.3394   0.0000   0.0000   0.0000   0.3299
   4.000   0.7809   0.01240   0.00577  -0.0644  0.6017  1.0000  -1.3831   0.0000   0.0000   0.0000   0.3283
   4.100   0.7906   0.01242   0.00581  -0.0640  0.5973  1.0000  -1.4250   0.0000   0.0000   0.0000   0.3268
   4.200   0.8000   0.01243   0.00587  -0.0636  0.5923  1.0000  -1.4675   0.0000   0.0000   0.0000   0.3252
   4.250   0.8050   0.01242   0.00586  -0.0635  0.5900  1.0000  -1.4912   0.0000   0.0000   0.0000   0.3245
   4.300   0.8101   0.01242   0.00584  -0.0633  0.5879  1.0000  -1.5155   0.0000   0.0000   0.0000   0.3237
   4.400   0.8206   0.01243   0.00581  -0.0630  0.5841  1.0000  -1.5647   0.0000   0.0000   0.0000   0.3223
   4.500   0.8296   0.01244   0.00589  -0.0626  0.5787  1.0000  -1.6102   0.0000   0.0000   0.0000   0.3209
   4.600   0.8395   0.01242   0.00587  -0.0623  0.5736  1.0000  -1.6587   0.0000   0.0000   0.0000   0.3194
   4.750   0.8541   0.01241   0.00586  -0.0617  0.5660  1.0000  -1.7320   0.0000   0.0000   0.0000   0.3174
   4.800   0.8588   0.01240   0.00588  -0.0615  0.5629  1.0000  -1.7557   0.0000   0.0000   0.0000   0.3167
   4.900   0.8685   0.01238   0.00586  -0.0611  0.5573  1.0000  -1.8066   0.0000   0.0000   0.0000   0.3153
   5.000   0.8783   0.01238   0.00586  -0.0608  0.5521  1.0000  -1.8612   0.0000   0.0000   0.0000   0.3140
   5.100   0.8876   0.01237   0.00590  -0.0603  0.5458  1.0000  -1.9144   0.0000   0.0000   0.0000   0.3127
   5.200   0.8974   0.01236   0.00588  -0.0600  0.5405  1.0000  -1.9702   0.0000   0.0000   0.0000   0.3114
   5.250   0.9023   0.01237   0.00589  -0.0598  0.5379  1.0000  -1.9980   0.0000   0.0000   0.0000   0.3108
   5.300   0.9068   0.01238   0.00594  -0.0596  0.5345  1.0000  -2.0245   0.0000   0.0000   0.0000   0.3102
   5.400   0.9163   0.01237   0.00597  -0.0592  0.5280  1.0000  -2.0796   0.0000   0.0000   0.0000   0.3090
   5.500   0.9258   0.01238   0.00597  -0.0588  0.5216  1.0000  -2.1354   0.0000   0.0000   0.0000   0.3078
   5.600   0.9349   0.01237   0.00602  -0.0584  0.5137  1.0000  -2.1902   0.0000   0.0000   0.0000   0.3066
   5.700   0.9441   0.01238   0.00605  -0.0579  0.5059  1.0000  -2.2459   0.0000   0.0000   0.0000   0.3053
   5.750   0.9486   0.01238   0.00608  -0.0577  0.5010  1.0000  -2.2732   0.0000   0.0000   0.0000   0.3047
   5.800   0.9531   0.01239   0.00607  -0.0574  0.4963  1.0000  -2.3035   0.0000   0.0000   0.0000   0.3041
   5.900   0.9619   0.01240   0.00612  -0.0569  0.4851  1.0000  -2.3636   0.0000   0.0000   0.0000   0.3029
   6.000   0.9703   0.01242   0.00615  -0.0563  0.4720  1.0000  -2.4233   0.0000   0.0000   0.0000   0.3017
   6.100   0.9784   0.01247   0.00618  -0.0556  0.4553  1.0000  -2.4816   0.0000   0.0000   0.0000   0.3004
   6.200   0.9856   0.01255   0.00621  -0.0548  0.4316  1.0000  -2.5373   0.0000   0.0000   0.0000   0.2990
   6.250   0.9886   0.01263   0.00624  -0.0543  0.4142  1.0000  -2.5633   0.0000   0.0000   0.0000   0.2983
   6.300   0.9906   0.01276   0.00626  -0.0537  0.3905  1.0000  -2.5862   0.0000   0.0000   0.0000   0.2975
   6.400   0.9895   0.01339   0.00645  -0.0517  0.3076  1.0000  -2.6157   0.0000   0.0000   0.0000   0.2954
   6.500   0.9843   0.01448   0.00700  -0.0493  0.2247  1.0000  -2.6311   0.0000   0.0000   0.0000   0.2932
   6.600   0.9823   0.01539   0.00758  -0.0475  0.1755  1.0000  -2.6546   0.0000   0.0000   0.0000   0.2913
   6.700   0.9833   0.01607   0.00807  -0.0460  0.1489  1.0000  -2.6874   0.0000   0.0000   0.0000   0.2896
   6.800   0.9859   0.01661   0.00850  -0.0448  0.1325  1.0000  -2.7257   0.0000   0.0000   0.0000   0.2881
   6.900   0.9894   0.01708   0.00888  -0.0436  0.1206  1.0000  -2.7675   0.0000   0.0000   0.0000   0.2867
   7.000   0.9936   0.01748   0.00922  -0.0426  0.1110  1.0000  -2.8126   0.0000   0.0000   0.0000   0.2854
   7.100   0.9980   0.01786   0.00955  -0.0416  0.1031  1.0000  -2.8592   0.0000   0.0000   0.0000   0.2841
   7.200   1.0019   0.01825   0.00987  -0.0406  0.0965  1.0000  -2.9059   0.0000   0.0000   0.0000   0.2828
   7.250   1.0051   0.01837   0.01000  -0.0403  0.0929  1.0000  -2.9329   0.0000   0.0000   0.0000   0.2823
   7.300   1.0079   0.01851   0.01013  -0.0399  0.0898  1.0000  -2.9598   0.0000   0.0000   0.0000   0.2817
   7.400   1.0121   0.01886   0.01043  -0.0389  0.0848  1.0000  -3.0127   0.0000   0.0000   0.0000   0.2804
   7.500   1.0178   0.01912   0.01069  -0.0381  0.0799  1.0000  -3.0710   0.0000   0.0000   0.0000   0.2793
   7.600   1.0214   0.01948   0.01101  -0.0370  0.0764  1.0000  -3.1215   0.0000   0.0000   0.0000   0.2780
   7.700   1.0271   0.01972   0.01129  -0.0361  0.0729  1.0000  -3.1783   0.0000   0.0000   0.0000   0.2769
   7.750   1.0293   0.01987   0.01144  -0.0356  0.0715  1.0000  -3.2050   0.0000   0.0000   0.0000   0.2763
   7.800   1.0312   0.02004   0.01160  -0.0351  0.0702  1.0000  -3.2304   0.0000   0.0000   0.0000   0.2756
   7.900   1.0335   0.02042   0.01197  -0.0338  0.0681  1.0000  -3.2756   0.0000   0.0000   0.0000   0.2742
   8.000   1.0383   0.02067   0.01226  -0.0328  0.0657  1.0000  -3.3285   0.0000   0.0000   0.0000   0.2729
   8.100   1.0416   0.02094   0.01255  -0.0316  0.0636  1.0000  -3.3772   0.0000   0.0000   0.0000   0.2715
   8.200   1.0436   0.02124   0.01286  -0.0302  0.0619  1.0000  -3.4219   0.0000   0.0000   0.0000   0.2700
   8.250   1.0439   0.02142   0.01303  -0.0294  0.0612  1.0000  -3.4419   0.0000   0.0000   0.0000   0.2692
   8.300   1.0438   0.02163   0.01322  -0.0285  0.0606  1.0000  -3.4698   0.0000   0.0000   0.0000   0.2683
   8.400   1.0465   0.02193   0.01356  -0.0272  0.0591  1.0000  -3.5560   0.0000   0.0000   0.0000   0.2668
   8.500   1.0495   0.02223   0.01390  -0.0260  0.0575  1.0000  -3.6459   0.0000   0.0000   0.0000   0.2655
   8.600   1.0522   0.02254   0.01423  -0.0248  0.0560  1.0000  -3.7346   0.0000   0.0000   0.0000   0.2641
   8.700   1.0545   0.02288   0.01458  -0.0236  0.0546  1.0000  -3.8223   0.0000   0.0000   0.0000   0.2628
   8.750   1.0553   0.02307   0.01477  -0.0229  0.0540  1.0000  -3.8641   0.0000   0.0000   0.0000   0.2621
   8.800   1.0557   0.02329   0.01498  -0.0223  0.0535  1.0000  -3.9026   0.0000   0.0000   0.0000   0.2614
   8.900   1.0569   0.02371   0.01541  -0.0210  0.0524  1.0000  -3.9811   0.0000   0.0000   0.0000   0.2600
   9.000   1.0606   0.02403   0.01579  -0.0200  0.0510  1.0000  -4.0771   0.0000   0.0000   0.0000   0.2589
   9.100   1.0637   0.02438   0.01618  -0.0190  0.0497  1.0000  -4.1710   0.0000   0.0000   0.0000   0.2578
   9.200   1.0667   0.02475   0.01657  -0.0180  0.0485  1.0000  -4.2645   0.0000   0.0000   0.0000   0.2567
   9.250   1.0680   0.02494   0.01676  -0.0175  0.0480  1.0000  -4.3110   0.0000   0.0000   0.0000   0.2561
   9.300   1.0692   0.02514   0.01696  -0.0170  0.0475  1.0000  -4.3565   0.0000   0.0000   0.0000   0.2556
   9.400   1.0710   0.02559   0.01741  -0.0160  0.0466  1.0000  -4.4425   0.0000   0.0000   0.0000   0.2544
   9.500   1.0722   0.02612   0.01793  -0.0149  0.0458  1.0000  -4.5221   0.0000   0.0000   0.0000   0.2533
   9.600   1.0759   0.02651   0.01839  -0.0141  0.0450  1.0000  -4.6189   0.0000   0.0000   0.0000   0.2523
   9.700   1.0794   0.02692   0.01886  -0.0132  0.0440  1.0000  -4.7146   0.0000   0.0000   0.0000   0.2514
   9.750   1.0812   0.02713   0.01908  -0.0128  0.0435  1.0000  -4.7637   0.0000   0.0000   0.0000   0.2509
   9.800   1.0830   0.02733   0.01930  -0.0125  0.0430  1.0000  -4.8139   0.0000   0.0000   0.0000   0.2505
   9.900   1.0865   0.02770   0.01970  -0.0118  0.0418  1.0000  -4.9173   0.0000   0.0000   0.0000   0.2496
  10.000   1.0897   0.02809   0.02009  -0.0111  0.0407  1.0000  -5.0219   0.0000   0.0000   0.0000   0.2488
  10.100   1.0912   0.02863   0.02059  -0.0103  0.0396  1.0000  -5.1127   0.0000   0.0000   0.0000   0.2479
  10.200   1.0964   0.02891   0.02097  -0.0097  0.0382  1.0000  -5.2290   0.0000   0.0000   0.0000   0.2472
  10.250   1.0987   0.02908   0.02117  -0.0094  0.0375  1.0000  -5.2855   0.0000   0.0000   0.0000   0.2469
  10.300   1.1008   0.02926   0.02138  -0.0092  0.0369  1.0000  -5.3413   0.0000   0.0000   0.0000   0.2465
  10.400   1.1044   0.02966   0.02180  -0.0086  0.0358  1.0000  -5.4495   0.0000   0.0000   0.0000   0.2458
  10.500   1.1075   0.03011   0.02228  -0.0079  0.0351  1.0000  -5.5534   0.0000   0.0000   0.0000   0.2451
  10.600   1.1102   0.03062   0.02280  -0.0073  0.0345  1.0000  -5.6547   0.0000   0.0000   0.0000   0.2443
  10.700   1.1120   0.03122   0.02339  -0.0066  0.0339  1.0000  -5.7480   0.0000   0.0000   0.0000   0.2435
  10.750   1.1140   0.03144   0.02365  -0.0063  0.0336  1.0000  -5.8020   0.0000   0.0000   0.0000   0.2432
  10.800   1.1161   0.03167   0.02392  -0.0061  0.0332  1.0000  -5.8562   0.0000   0.0000   0.0000   0.2429
  10.900   1.1199   0.03214   0.02446  -0.0055  0.0325  1.0000  -5.9631   0.0000   0.0000   0.0000   0.2422
  11.000   1.1235   0.03263   0.02500  -0.0050  0.0318  1.0000  -6.0694   0.0000   0.0000   0.0000   0.2415
  11.100   1.1270   0.03313   0.02555  -0.0044  0.0312  1.0000  -6.1757   0.0000   0.0000   0.0000   0.2409
  11.200   1.1303   0.03365   0.02610  -0.0039  0.0306  1.0000  -6.2817   0.0000   0.0000   0.0000   0.2403
  11.250   1.1319   0.03391   0.02638  -0.0037  0.0304  1.0000  -6.3344   0.0000   0.0000   0.0000   0.2400
  11.300   1.1335   0.03417   0.02666  -0.0034  0.0301  1.0000  -6.3871   0.0000   0.0000   0.0000   0.2397
  11.400   1.1365   0.03469   0.02721  -0.0030  0.0295  1.0000  -6.4947   0.0000   0.0000   0.0000   0.2391
  11.500   1.1388   0.03526   0.02778  -0.0025  0.0289  1.0000  -6.5999   0.0000   0.0000   0.0000   0.2385
  11.600   1.1424   0.03576   0.02835  -0.0021  0.0280  1.0000  -6.7112   0.0000   0.0000   0.0000   0.2380
  11.700   1.1468   0.03619   0.02887  -0.0018  0.0269  1.0000  -6.8305   0.0000   0.0000   0.0000   0.2375
  11.750   1.1487   0.03643   0.02914  -0.0016  0.0264  1.0000  -6.8890   0.0000   0.0000   0.0000   0.2373
  11.800   1.1505   0.03668   0.02941  -0.0015  0.0260  1.0000  -6.9457   0.0000   0.0000   0.0000   0.2371
  11.900   1.1536   0.03723   0.03001  -0.0011  0.0254  1.0000  -7.0529   0.0000   0.0000   0.0000   0.2366
  12.000   1.1566   0.03780   0.03061  -0.0007  0.0249  1.0000  -7.1589   0.0000   0.0000   0.0000   0.2361
  12.100   1.1591   0.03840   0.03125  -0.0004  0.0244  1.0000  -7.2624   0.0000   0.0000   0.0000   0.2356
  12.200   1.1611   0.03907   0.03193  -0.0000  0.0238  1.0000  -7.3599   0.0000   0.0000   0.0000   0.2351
  12.250   1.1635   0.03930   0.03222   0.0001  0.0233  1.0000  -7.4177   0.0000   0.0000   0.0000   0.2349
  12.300   1.1660   0.03952   0.03250   0.0003  0.0227  1.0000  -7.4781   0.0000   0.0000   0.0000   0.2347
  12.400   1.1709   0.03990   0.03295   0.0004  0.0212  1.0000  -7.6108   0.0000   0.0000   0.0000   0.2344
  12.500   1.1752   0.04034   0.03339   0.0005  0.0199  1.0000  -7.7439   0.0000   0.0000   0.0000   0.2341
  12.600   1.1799   0.04081   0.03395   0.0008  0.0185  1.0000  -7.8619   0.0000   0.0000   0.0000   0.2337
  12.700   1.1850   0.04124   0.03443   0.0010  0.0168  1.0000  -7.9898   0.0000   0.0000   0.0000   0.2334
  12.750   1.1868   0.04151   0.03470   0.0011  0.0162  1.0000  -8.0485   0.0000   0.0000   0.0000   0.2332
  12.800   1.1883   0.04183   0.03503   0.0012  0.0156  1.0000  -8.0971   0.0000   0.0000   0.0000   0.2330
  12.900   1.1919   0.04244   0.03572   0.0015  0.0138  1.0000  -8.1910   0.0000   0.0000   0.0000   0.2326
  13.000   1.1945   0.04312   0.03641   0.0017  0.0123  1.0000  -8.2851   0.0000   0.0000   0.0000   0.2322
  13.100   1.1962   0.04393   0.03729   0.0021  0.0107  1.0000  -8.3525   0.0000   0.0000   0.0000   0.2317
  13.200   1.1973   0.04480   0.03815   0.0023  0.0096  1.0000  -8.4288   0.0000   0.0000   0.0000   0.2313
  13.250   1.1972   0.04530   0.03870   0.0025  0.0091  1.0000  -8.4496   0.0000   0.0000   0.0000   0.2311
  13.300   1.1972   0.04580   0.03923   0.0026  0.0087  1.0000  -8.4743   0.0000   0.0000   0.0000   0.2309
  13.400   1.1973   0.04680   0.04027   0.0029  0.0080  1.0000  -8.5326   0.0000   0.0000   0.0000   0.2305
  13.500   1.1972   0.04782   0.04133   0.0031  0.0075  1.0000  -8.5953   0.0000   0.0000   0.0000   0.2302
  13.600   1.1965   0.04893   0.04245   0.0032  0.0072  1.0000  -8.6515   0.0000   0.0000   0.0000   0.2298
  13.700   1.1955   0.05008   0.04368   0.0034  0.0069  1.0000  -8.6926   0.0000   0.0000   0.0000   0.2295
  13.750   1.1950   0.05067   0.04430   0.0035  0.0067  1.0000  -8.7140   0.0000   0.0000   0.0000   0.2293
  13.800   1.1945   0.05125   0.04493   0.0036  0.0066  1.0000  -8.7359   0.0000   0.0000   0.0000   0.2292
  13.900   1.1933   0.05245   0.04619   0.0037  0.0064  1.0000  -8.7802   0.0000   0.0000   0.0000   0.2289
  14.000   1.1921   0.05366   0.04747   0.0037  0.0062  1.0000  -8.8257   0.0000   0.0000   0.0000   0.2287
  14.100   1.1908   0.05491   0.04879   0.0037  0.0060  1.0000  -8.8712   0.0000   0.0000   0.0000   0.2285
  14.200   1.1893   0.05619   0.05013   0.0037  0.0059  1.0000  -8.9159   0.0000   0.0000   0.0000   0.2283
  14.250   1.1885   0.05685   0.05082   0.0037  0.0058  1.0000  -8.9379   0.0000   0.0000   0.0000   0.2282
  14.300   1.1876   0.05751   0.05152   0.0036  0.0058  1.0000  -8.9592   0.0000   0.0000   0.0000   0.2281
  14.400   1.1858   0.05888   0.05295   0.0035  0.0057  1.0000  -9.0009   0.0000   0.0000   0.0000   0.2280
  14.500   1.1837   0.06029   0.05444   0.0034  0.0056  1.0000  -9.0399   0.0000   0.0000   0.0000   0.2280
  14.600   1.1813   0.06176   0.05597   0.0032  0.0055  1.0000  -9.0756   0.0000   0.0000   0.0000   0.2280
  14.700   1.1787   0.06329   0.05757   0.0029  0.0054  1.0000  -9.1074   0.0000   0.0000   0.0000   0.2280
  14.750   1.1772   0.06408   0.05839   0.0027  0.0054  1.0000  -9.1215   0.0000   0.0000   0.0000   0.2280
  14.800   1.1757   0.06489   0.05923   0.0026  0.0053  1.0000  -9.1348   0.0000   0.0000   0.0000   0.2281
  14.900   1.1724   0.06657   0.06098   0.0022  0.0053  1.0000  -9.1561   0.0000   0.0000   0.0000   0.2282
  15.000   1.1688   0.06832   0.06280   0.0017  0.0052  1.0000  -9.1728   0.0000   0.0000   0.0000   0.2284


