xflr5 v6.59

 Calculated polar for: SF-4

 1 1 Reynolds number fixed          Mach number fixed         

 xtrf =   1.000 (top)        1.000 (bottom)
 Mach =   0.050     Re =     0.200 e 6     Ncrit =   9.000

  alpha     CL        CD       CDp       Cm    Top Xtr Bot Xtr   Cpmin    Chinge    XCp    
 ------- -------- --------- --------- -------- ------- ------- -------- --------- ---------
  -5.000  -0.2084   0.03268   0.02832  -0.0731  0.9438  0.0456  -1.8865   0.0000   0.0000   0.0000  -0.1051
  -4.900  -0.1992   0.03160   0.02713  -0.0733  0.9388  0.0476  -1.8595   0.0000   0.0000   0.0000  -0.1221
  -4.800  -0.2005   0.03399   0.02902  -0.0735  0.9428  0.0501  -1.9733   0.0000   0.0000   0.0000  -0.1216
  -4.700  -0.1911   0.03268   0.02776  -0.0738  0.9385  0.0509  -1.9090   0.0000   0.0000   0.0000  -0.1417
  -4.600  -0.1801   0.03166   0.02670  -0.0743  0.9348  0.0524  -1.8550   0.0000   0.0000   0.0000  -0.1679
  -4.500  -0.1684   0.03069   0.02544  -0.0746  0.9310  0.0570  -1.8544   0.0000   0.0000   0.0000  -0.1987
  -4.400  -0.1568   0.02955   0.02431  -0.0751  0.9280  0.0584  -1.7945   0.0000   0.0000   0.0000  -0.2353
  -4.300  -0.1445   0.02875   0.02325  -0.0755  0.9250  0.0641  -1.7741   0.0000   0.0000   0.0000  -0.2790
  -4.200  -0.1323   0.02762   0.02213  -0.0760  0.9224  0.0657  -1.7186   0.0000   0.0000   0.0000  -0.3318
  -4.100  -0.1232   0.02701   0.02133  -0.0758  0.9177  0.0718  -1.6914   0.0000   0.0000   0.0000  -0.3726
  -4.000  -0.1142   0.02611   0.02043  -0.0756  0.9129  0.0735  -1.6500   0.0000   0.0000   0.0000  -0.4192
  -3.900  -0.0978   0.02348   0.01723  -0.0737  0.9094  0.0401  -1.9409   0.0000   0.0000   0.0000  -0.5134
  -3.800  -0.0889   0.02335   0.01708  -0.0740  0.9052  0.0515  -1.8055   0.0000   0.0000   0.0000  -0.5922
  -3.700  -0.0701   0.01477   0.00790  -0.0700  0.8963  0.0177  -2.4091   0.0000   0.0000   0.0000  -0.7616
  -3.600  -0.0589   0.01395   0.00676  -0.0693  0.8929  0.0165  -2.5184   0.0000   0.0000   0.0000  -0.9407
  -3.500  -0.0492   0.01331   0.00606  -0.0690  0.8889  0.0164  -2.4957   0.0000   0.0000   0.0000  -1.1692
  -3.400  -0.0392   0.01272   0.00539  -0.0686  0.8851  0.0163  -2.4780   0.0000   0.0000   0.0000  -1.5214
  -3.300  -0.0290   0.01217   0.00475  -0.0682  0.8815  0.0163  -2.4637   0.0000   0.0000   0.0000  -2.1241
  -3.200  -0.0189   0.01166   0.00416  -0.0677  0.8781  0.0165  -2.4519   0.0000   0.0000   0.0000  -3.3736
  -3.100  -0.0091   0.01114   0.00360  -0.0673  0.8751  0.0168  -2.4318   0.0000   0.0000   0.0000  -7.2147
  -3.000   0.0005   0.01071   0.00315  -0.0669  0.8722  0.0174  -2.3803   0.0000   0.0000   0.0000  129.2629
  -2.900   0.0104   0.01037   0.00279  -0.0666  0.8692  0.0183  -2.3403   0.0000   0.0000   0.0000   6.7341
  -2.800   0.0202   0.01006   0.00243  -0.0662  0.8655  0.0199  -2.3294   0.0000   0.0000   0.0000   3.5608
  -2.600   0.0418   0.01373   0.00602  -0.0670  0.8644  0.0294  -2.2708   0.0000   0.0000   0.0000   1.8692
  -2.500   0.0513   0.01342   0.00577  -0.0668  0.8605  0.0456  -2.2747   0.0000   0.0000   0.0000   1.5631
  -2.400   0.0608   0.01301   0.00540  -0.0664  0.8569  0.0589  -2.2594   0.0000   0.0000   0.0000   1.3525
  -2.300   0.0707   0.01272   0.00509  -0.0660  0.8535  0.0704  -2.1952   0.0000   0.0000   0.0000   1.1924
  -2.200   0.0804   0.01235   0.00478  -0.0656  0.8505  0.0877  -2.1175   0.0000   0.0000   0.0000   1.0740
  -2.100   0.0851   0.01095   0.00445  -0.0651  0.8476  0.3401  -2.0778   0.0000   0.0000   0.0000   1.0219
  -2.000   0.0882   0.01013   0.00454  -0.0635  0.8448  0.5886  -2.0092   0.0000   0.0000   0.0000   0.9762
  -1.900   0.0948   0.00988   0.00457  -0.0624  0.8414  0.6715  -1.9071   0.0000   0.0000   0.0000   0.9132
  -1.800   0.1021   0.00972   0.00459  -0.0613  0.8379  0.7269  -1.7986   0.0000   0.0000   0.0000   0.8546
  -1.700   0.1097   0.00959   0.00459  -0.0601  0.8346  0.7756  -1.6876   0.0000   0.0000   0.0000   0.8024
  -1.600   0.1177   0.00946   0.00460  -0.0589  0.8315  0.8238  -1.5735   0.0000   0.0000   0.0000   0.7544
  -1.500   0.1298   0.00937   0.00459  -0.0584  0.8288  0.8792  -1.4356   0.0000   0.0000   0.0000   0.7032
  -1.400   0.1613   0.00930   0.00453  -0.0618  0.8274  0.9408  -1.1970   0.0000   0.0000   0.0000   0.6354
  -1.300   0.1975   0.00933   0.00447  -0.0664  0.8262  0.9726  -0.9662   0.0000   0.0000   0.0000   0.5875
  -1.200   0.2269   0.00931   0.00434  -0.0700  0.8245  0.9844  -0.7799   0.0000   0.0000   0.0000   0.5596
  -1.100   0.2487   0.00929   0.00423  -0.0722  0.8224  0.9919  -0.6385   0.0000   0.0000   0.0000   0.5413
  -1.000   0.2697   0.00929   0.00414  -0.0743  0.8202  0.9977  -0.5058   0.0000   0.0000   0.0000   0.5262
  -0.900   0.2829   0.00929   0.00409  -0.0750  0.8171  1.0000  -0.4799   0.0000   0.0000   0.0000   0.5156
  -0.800   0.2883   0.00929   0.00406  -0.0741  0.8132  1.0000  -0.4832   0.0000   0.0000   0.0000   0.5076
  -0.700   0.2947   0.00931   0.00403  -0.0734  0.8095  1.0000  -0.4872   0.0000   0.0000   0.0000   0.4993
  -0.600   0.3018   0.00933   0.00400  -0.0727  0.8061  1.0000  -0.4916   0.0000   0.0000   0.0000   0.4910
  -0.500   0.3094   0.00935   0.00396  -0.0720  0.8030  1.0000  -0.4964   0.0000   0.0000   0.0000   0.4829
  -0.400   0.3174   0.00938   0.00393  -0.0714  0.8001  1.0000  -0.5013   0.0000   0.0000   0.0000   0.4751
  -0.300   0.3258   0.00942   0.00390  -0.0709  0.7975  1.0000  -0.5065   0.0000   0.0000   0.0000   0.4675
  -0.200   0.3344   0.00949   0.00391  -0.0704  0.7949  1.0000  -0.5120   0.0000   0.0000   0.0000   0.4602
  -0.100   0.3431   0.00953   0.00393  -0.0700  0.7917  1.0000  -0.5173   0.0000   0.0000   0.0000   0.4537
   0.000   0.3520   0.00957   0.00395  -0.0697  0.7884  1.0000  -0.5227   0.0000   0.0000   0.0000   0.4475
   0.100   0.3611   0.00961   0.00397  -0.0693  0.7852  1.0000  -0.5283   0.0000   0.0000   0.0000   0.4414
   0.200   0.3703   0.00965   0.00397  -0.0689  0.7821  1.0000  -0.5342   0.0000   0.0000   0.0000   0.4355
   0.300   0.3796   0.00969   0.00397  -0.0686  0.7792  1.0000  -0.5403   0.0000   0.0000   0.0000   0.4299
   0.400   0.3890   0.00973   0.00397  -0.0682  0.7766  1.0000  -0.5465   0.0000   0.0000   0.0000   0.4244
   0.500   0.3986   0.00978   0.00397  -0.0678  0.7741  1.0000  -0.5528   0.0000   0.0000   0.0000   0.4192
   0.600   0.4081   0.00985   0.00399  -0.0674  0.7717  1.0000  -0.5592   0.0000   0.0000   0.0000   0.4142
   0.700   0.4177   0.00992   0.00404  -0.0671  0.7690  1.0000  -0.5656   0.0000   0.0000   0.0000   0.4097
   0.800   0.4272   0.00997   0.00409  -0.0669  0.7658  1.0000  -0.5719   0.0000   0.0000   0.0000   0.4054
   0.900   0.4369   0.01002   0.00413  -0.0667  0.7626  1.0000  -0.5785   0.0000   0.0000   0.0000   0.4013
   1.000   0.4466   0.01007   0.00416  -0.0664  0.7595  1.0000  -0.5892   0.0000   0.0000   0.0000   0.3973
   1.100   0.4565   0.01012   0.00419  -0.0661  0.7566  1.0000  -0.6007   0.0000   0.0000   0.0000   0.3934
   1.200   0.4664   0.01016   0.00421  -0.0658  0.7538  1.0000  -0.6128   0.0000   0.0000   0.0000   0.3896
   1.300   0.4764   0.01021   0.00422  -0.0655  0.7513  1.0000  -0.6256   0.0000   0.0000   0.0000   0.3860
   1.400   0.4865   0.01026   0.00424  -0.0653  0.7489  1.0000  -0.6391   0.0000   0.0000   0.0000   0.3825
   1.500   0.4966   0.01035   0.00429  -0.0650  0.7465  1.0000  -0.6533   0.0000   0.0000   0.0000   0.3791
   1.600   0.5064   0.01041   0.00437  -0.0648  0.7434  1.0000  -0.6679   0.0000   0.0000   0.0000   0.3762
   1.700   0.5163   0.01047   0.00444  -0.0646  0.7401  1.0000  -0.6837   0.0000   0.0000   0.0000   0.3732
   1.800   0.5264   0.01052   0.00450  -0.0644  0.7368  1.0000  -0.7054   0.0000   0.0000   0.0000   0.3704
   1.900   0.5365   0.01057   0.00454  -0.0642  0.7337  1.0000  -0.7288   0.0000   0.0000   0.0000   0.3676
   2.000   0.5467   0.01061   0.00457  -0.0640  0.7308  1.0000  -0.7532   0.0000   0.0000   0.0000   0.3648
   2.100   0.5570   0.01065   0.00459  -0.0637  0.7280  1.0000  -0.7794   0.0000   0.0000   0.0000   0.3622
   2.200   0.5674   0.01069   0.00460  -0.0634  0.7252  1.0000  -0.8062   0.0000   0.0000   0.0000   0.3595
   2.300   0.5775   0.01076   0.00464  -0.0632  0.7219  1.0000  -0.8345   0.0000   0.0000   0.0000   0.3570
   2.400   0.5872   0.01078   0.00469  -0.0629  0.7170  1.0000  -0.8620   0.0000   0.0000   0.0000   0.3546
   2.500   0.5970   0.01078   0.00469  -0.0625  0.7120  1.0000  -0.8918   0.0000   0.0000   0.0000   0.3522
   2.600   0.6072   0.01077   0.00466  -0.0622  0.7073  1.0000  -0.9228   0.0000   0.0000   0.0000   0.3498
   2.700   0.6175   0.01076   0.00462  -0.0618  0.7032  1.0000  -0.9545   0.0000   0.0000   0.0000   0.3474
   2.800   0.6279   0.01080   0.00461  -0.0615  0.6995  1.0000  -0.9888   0.0000   0.0000   0.0000   0.3451
   2.900   0.6376   0.01083   0.00470  -0.0613  0.6948  1.0000  -1.0218   0.0000   0.0000   0.0000   0.3432
   3.000   0.6477   0.01085   0.00474  -0.0610  0.6901  1.0000  -1.0556   0.0000   0.0000   0.0000   0.3412
   3.100   0.6579   0.01086   0.00475  -0.0607  0.6857  1.0000  -1.0920   0.0000   0.0000   0.0000   0.3393
   3.200   0.6683   0.01086   0.00474  -0.0605  0.6816  1.0000  -1.1299   0.0000   0.0000   0.0000   0.3373
   3.300   0.6788   0.01088   0.00473  -0.0602  0.6779  1.0000  -1.1685   0.0000   0.0000   0.0000   0.3354
   3.400   0.6889   0.01092   0.00478  -0.0599  0.6734  1.0000  -1.2062   0.0000   0.0000   0.0000   0.3337
   3.500   0.6988   0.01093   0.00484  -0.0597  0.6678  1.0000  -1.2462   0.0000   0.0000   0.0000   0.3319
   3.600   0.7090   0.01093   0.00484  -0.0593  0.6624  1.0000  -1.2880   0.0000   0.0000   0.0000   0.3302
   3.700   0.7193   0.01091   0.00479  -0.0590  0.6573  1.0000  -1.3307   0.0000   0.0000   0.0000   0.3284
   3.800   0.7296   0.01093   0.00478  -0.0587  0.6520  1.0000  -1.3737   0.0000   0.0000   0.0000   0.3267
   3.900   0.7393   0.01092   0.00482  -0.0584  0.6451  1.0000  -1.4157   0.0000   0.0000   0.0000   0.3251
   4.000   0.7493   0.01090   0.00481  -0.0580  0.6386  1.0000  -1.4622   0.0000   0.0000   0.0000   0.3235
   4.100   0.7596   0.01090   0.00477  -0.0577  0.6330  1.0000  -1.5100   0.0000   0.0000   0.0000   0.3219
   4.200   0.7695   0.01091   0.00482  -0.0574  0.6265  1.0000  -1.5567   0.0000   0.0000   0.0000   0.3205
   4.300   0.7794   0.01091   0.00486  -0.0571  0.6193  1.0000  -1.6038   0.0000   0.0000   0.0000   0.3190
   4.400   0.7896   0.01091   0.00484  -0.0567  0.6129  1.0000  -1.6522   0.0000   0.0000   0.0000   0.3175
   4.500   0.7996   0.01093   0.00486  -0.0564  0.6062  1.0000  -1.7023   0.0000   0.0000   0.0000   0.3162
   4.600   0.8094   0.01094   0.00491  -0.0561  0.5980  1.0000  -1.7542   0.0000   0.0000   0.0000   0.3148
   4.700   0.8194   0.01095   0.00490  -0.0558  0.5904  1.0000  -1.8075   0.0000   0.0000   0.0000   0.3134
   4.800   0.8292   0.01097   0.00495  -0.0554  0.5818  1.0000  -1.8604   0.0000   0.0000   0.0000   0.3121
   4.900   0.8390   0.01099   0.00499  -0.0551  0.5722  1.0000  -1.9136   0.0000   0.0000   0.0000   0.3108
   5.000   0.8487   0.01102   0.00502  -0.0547  0.5626  1.0000  -1.9672   0.0000   0.0000   0.0000   0.3095
   5.100   0.8581   0.01105   0.00505  -0.0543  0.5504  1.0000  -2.0205   0.0000   0.0000   0.0000   0.3082
   5.200   0.8668   0.01108   0.00503  -0.0537  0.5309  1.0000  -2.0741   0.0000   0.0000   0.0000   0.3068
   5.300   0.8744   0.01116   0.00499  -0.0529  0.5024  1.0000  -2.1285   0.0000   0.0000   0.0000   0.3053
   5.400   0.8809   0.01135   0.00498  -0.0520  0.4628  1.0000  -2.1800   0.0000   0.0000   0.0000   0.3036
   5.500   0.8858   0.01169   0.00504  -0.0509  0.4130  1.0000  -2.2270   0.0000   0.0000   0.0000   0.3020
   5.600   0.8897   0.01219   0.00521  -0.0498  0.3554  1.0000  -2.2704   0.0000   0.0000   0.0000   0.3003
   5.700   0.8927   0.01279   0.00549  -0.0486  0.2991  1.0000  -2.3112   0.0000   0.0000   0.0000   0.2987
   5.800   0.8971   0.01334   0.00578  -0.0477  0.2566  1.0000  -2.3554   0.0000   0.0000   0.0000   0.2973
   5.900   0.9028   0.01378   0.00606  -0.0470  0.2266  1.0000  -2.4036   0.0000   0.0000   0.0000   0.2961
   6.000   0.9089   0.01420   0.00634  -0.0463  0.2011  1.0000  -2.4529   0.0000   0.0000   0.0000   0.2949
   6.100   0.9152   0.01459   0.00661  -0.0457  0.1787  1.0000  -2.5033   0.0000   0.0000   0.0000   0.2937
   6.200   0.9218   0.01496   0.00688  -0.0450  0.1591  1.0000  -2.5543   0.0000   0.0000   0.0000   0.2926
   6.300   0.9285   0.01533   0.00716  -0.0444  0.1420  1.0000  -2.6071   0.0000   0.0000   0.0000   0.2915
   6.400   0.9351   0.01568   0.00743  -0.0438  0.1273  1.0000  -2.6632   0.0000   0.0000   0.0000   0.2904
   6.500   0.9421   0.01601   0.00770  -0.0433  0.1149  1.0000  -2.7202   0.0000   0.0000   0.0000   0.2893
   6.600   0.9490   0.01634   0.00798  -0.0427  0.1049  1.0000  -2.7775   0.0000   0.0000   0.0000   0.2883
   6.700   0.9560   0.01665   0.00826  -0.0421  0.0967  1.0000  -2.8349   0.0000   0.0000   0.0000   0.2872
   6.800   0.9631   0.01696   0.00854  -0.0415  0.0899  1.0000  -2.8925   0.0000   0.0000   0.0000   0.2862
   6.900   0.9701   0.01726   0.00882  -0.0410  0.0843  1.0000  -2.9501   0.0000   0.0000   0.0000   0.2852
   7.000   0.9769   0.01757   0.00910  -0.0403  0.0795  1.0000  -3.0074   0.0000   0.0000   0.0000   0.2841
   7.100   0.9841   0.01785   0.00939  -0.0398  0.0749  1.0000  -3.1309   0.0000   0.0000   0.0000   0.2832
   7.200   0.9912   0.01813   0.00965  -0.0392  0.0703  1.0000  -3.2555   0.0000   0.0000   0.0000   0.2822
   7.300   0.9981   0.01841   0.00991  -0.0387  0.0655  1.0000  -3.3822   0.0000   0.0000   0.0000   0.2812
   7.400   1.0051   0.01868   0.01016  -0.0381  0.0610  1.0000  -3.5117   0.0000   0.0000   0.0000   0.2803
   7.500   1.0125   0.01892   0.01042  -0.0376  0.0572  1.0000  -3.6440   0.0000   0.0000   0.0000   0.2794
   7.600   1.0190   0.01922   0.01070  -0.0370  0.0549  1.0000  -3.7702   0.0000   0.0000   0.0000   0.2784
   7.700   1.0262   0.01946   0.01098  -0.0364  0.0525  1.0000  -3.9009   0.0000   0.0000   0.0000   0.2775
   7.800   1.0330   0.01973   0.01127  -0.0358  0.0506  1.0000  -4.0301   0.0000   0.0000   0.0000   0.2765
   7.900   1.0392   0.02003   0.01157  -0.0351  0.0489  1.0000  -4.1564   0.0000   0.0000   0.0000   0.2755
   8.000   1.0461   0.02028   0.01187  -0.0345  0.0471  1.0000  -4.2868   0.0000   0.0000   0.0000   0.2746
   8.100   1.0525   0.02055   0.01217  -0.0338  0.0455  1.0000  -4.4163   0.0000   0.0000   0.0000   0.2736
   8.300   1.0648   0.02111   0.01278  -0.0324  0.0427  1.0000  -4.6716   0.0000   0.0000   0.0000   0.2717
   8.400   1.0715   0.02134   0.01305  -0.0318  0.0406  1.0000  -4.8084   0.0000   0.0000   0.0000   0.2708
   8.500   1.0780   0.02158   0.01329  -0.0312  0.0384  1.0000  -4.9469   0.0000   0.0000   0.0000   0.2699
   8.600   1.0849   0.02179   0.01353  -0.0306  0.0362  1.0000  -5.0876   0.0000   0.0000   0.0000   0.2691
   8.700   1.0906   0.02206   0.01382  -0.0299  0.0350  1.0000  -5.2174   0.0000   0.0000   0.0000   0.2681
   8.800   1.0962   0.02234   0.01413  -0.0291  0.0340  1.0000  -5.3441   0.0000   0.0000   0.0000   0.2671
   8.900   1.1014   0.02259   0.01444  -0.0282  0.0330  1.0000  -5.4675   0.0000   0.0000   0.0000   0.2661
   9.000   1.1062   0.02285   0.01474  -0.0273  0.0321  1.0000  -5.5883   0.0000   0.0000   0.0000   0.2650
   9.100   1.1106   0.02311   0.01504  -0.0263  0.0313  1.0000  -5.7077   0.0000   0.0000   0.0000   0.2639
   9.200   1.1153   0.02337   0.01531  -0.0254  0.0300  1.0000  -5.8316   0.0000   0.0000   0.0000   0.2628
   9.300   1.1213   0.02357   0.01556  -0.0247  0.0279  1.0000  -5.9663   0.0000   0.0000   0.0000   0.2619
   9.400   1.1261   0.02383   0.01584  -0.0238  0.0265  1.0000  -6.0923   0.0000   0.0000   0.0000   0.2609
   9.500   1.1307   0.02410   0.01616  -0.0229  0.0255  1.0000  -6.2101   0.0000   0.0000   0.0000   0.2599
   9.600   1.1356   0.02436   0.01647  -0.0221  0.0240  1.0000  -6.3314   0.0000   0.0000   0.0000   0.2589
   9.700   1.1407   0.02462   0.01675  -0.0213  0.0217  1.0000  -6.4575   0.0000   0.0000   0.0000   0.2580
   9.800   1.1455   0.02491   0.01704  -0.0205  0.0192  1.0000  -6.5790   0.0000   0.0000   0.0000   0.2571
   9.900   1.1497   0.02523   0.01738  -0.0196  0.0160  1.0000  -6.6938   0.0000   0.0000   0.0000   0.2561
  10.000   1.1531   0.02562   0.01778  -0.0187  0.0127  1.0000  -6.7972   0.0000   0.0000   0.0000   0.2551
  10.100   1.1558   0.02607   0.01824  -0.0177  0.0101  1.0000  -6.8910   0.0000   0.0000   0.0000   0.2540
  10.200   1.1577   0.02658   0.01875  -0.0166  0.0081  1.0000  -6.9785   0.0000   0.0000   0.0000   0.2529
  10.300   1.1595   0.02712   0.01931  -0.0155  0.0070  1.0000  -7.0632   0.0000   0.0000   0.0000   0.2518
  10.400   1.1610   0.02770   0.01990  -0.0145  0.0063  1.0000  -7.1474   0.0000   0.0000   0.0000   0.2508
  10.500   1.1628   0.02825   0.02052  -0.0135  0.0058  1.0000  -7.2326   0.0000   0.0000   0.0000   0.2497
  10.600   1.1647   0.02882   0.02114  -0.0125  0.0055  1.0000  -7.3195   0.0000   0.0000   0.0000   0.2488
  10.700   1.1665   0.02941   0.02178  -0.0116  0.0052  1.0000  -7.4072   0.0000   0.0000   0.0000   0.2478
  10.800   1.1682   0.03002   0.02245  -0.0107  0.0050  1.0000  -7.4947   0.0000   0.0000   0.0000   0.2468
  10.900   1.1697   0.03066   0.02314  -0.0098  0.0049  1.0000  -7.5814   0.0000   0.0000   0.0000   0.2459
  11.000   1.1709   0.03132   0.02386  -0.0089  0.0047  1.0000  -7.6655   0.0000   0.0000   0.0000   0.2450
  11.100   1.1720   0.03201   0.02460  -0.0080  0.0046  1.0000  -7.7467   0.0000   0.0000   0.0000   0.2441
  11.200   1.1734   0.03267   0.02533  -0.0072  0.0045  1.0000  -7.8304   0.0000   0.0000   0.0000   0.2433
  11.300   1.1746   0.03335   0.02610  -0.0065  0.0045  1.0000  -7.9118   0.0000   0.0000   0.0000   0.2424
  11.400   1.1757   0.03406   0.02688  -0.0057  0.0044  1.0000  -7.9918   0.0000   0.0000   0.0000   0.2416
  11.500   1.1765   0.03480   0.02769  -0.0050  0.0043  1.0000  -8.0694   0.0000   0.0000   0.0000   0.2408
  11.600   1.1770   0.03556   0.02854  -0.0043  0.0043  1.0000  -8.1443   0.0000   0.0000   0.0000   0.2401
  11.700   1.1774   0.03635   0.02941  -0.0036  0.0042  1.0000  -8.2174   0.0000   0.0000   0.0000   0.2393
  11.800   1.1774   0.03718   0.03031  -0.0029  0.0042  1.0000  -8.2875   0.0000   0.0000   0.0000   0.2386
  11.900   1.1773   0.03803   0.03124  -0.0023  0.0041  1.0000  -8.3553   0.0000   0.0000   0.0000   0.2379
  12.000   1.1769   0.03892   0.03221  -0.0017  0.0041  1.0000  -8.4201   0.0000   0.0000   0.0000   0.2372
  12.100   1.1762   0.03984   0.03322  -0.0011  0.0041  1.0000  -8.4820   0.0000   0.0000   0.0000   0.2366
  12.200   1.1754   0.04080   0.03426  -0.0006  0.0041  1.0000  -8.5413   0.0000   0.0000   0.0000   0.2360
  12.300   1.1743   0.04181   0.03534  -0.0001  0.0040  1.0000  -8.5972   0.0000   0.0000   0.0000   0.2354
  12.400   1.1730   0.04284   0.03646   0.0003  0.0040  1.0000  -8.6507   0.0000   0.0000   0.0000   0.2349
  12.500   1.1713   0.04393   0.03762   0.0007  0.0040  1.0000  -8.7004   0.0000   0.0000   0.0000   0.2344
  12.600   1.1696   0.04505   0.03882   0.0010  0.0040  1.0000  -8.7476   0.0000   0.0000   0.0000   0.2339
  12.700   1.1675   0.04621   0.04007   0.0013  0.0040  1.0000  -8.7909   0.0000   0.0000   0.0000   0.2335
  12.800   1.1653   0.04742   0.04136   0.0016  0.0039  1.0000  -8.8316   0.0000   0.0000   0.0000   0.2331
  12.900   1.1628   0.04869   0.04270   0.0017  0.0039  1.0000  -8.8685   0.0000   0.0000   0.0000   0.2327
  13.000   1.1601   0.05000   0.04409   0.0019  0.0039  1.0000  -8.9026   0.0000   0.0000   0.0000   0.2325
  13.100   1.1572   0.05136   0.04554   0.0019  0.0039  1.0000  -8.9326   0.0000   0.0000   0.0000   0.2322
  13.200   1.1541   0.05278   0.04703   0.0019  0.0039  1.0000  -8.9597   0.0000   0.0000   0.0000   0.2320
  13.300   1.1508   0.05425   0.04858   0.0019  0.0039  1.0000  -8.9826   0.0000   0.0000   0.0000   0.2319
  13.400   1.1473   0.05578   0.05019   0.0017  0.0039  1.0000  -9.0026   0.0000   0.0000   0.0000   0.2318
  13.500   1.1435   0.05738   0.05187   0.0015  0.0039  1.0000  -9.0181   0.0000   0.0000   0.0000   0.2318
  13.600   1.1396   0.05903   0.05360   0.0012  0.0039  1.0000  -9.0304   0.0000   0.0000   0.0000   0.2319
  13.700   1.1354   0.06076   0.05541   0.0009  0.0039  1.0000  -9.0378   0.0000   0.0000   0.0000   0.2320
  13.800   1.1311   0.06255   0.05728   0.0004  0.0039  1.0000  -9.0418   0.0000   0.0000   0.0000   0.2322
  13.900   1.1265   0.06442   0.05923  -0.0001  0.0039  1.0000  -9.0413   0.0000   0.0000   0.0000   0.2325
  14.000   1.1218   0.06638   0.06126  -0.0007  0.0039  1.0000  -9.0365   0.0000   0.0000   0.0000   0.2329
  14.100   1.1169   0.06841   0.06337  -0.0014  0.0039  1.0000  -9.0280   0.0000   0.0000   0.0000   0.2334
  14.200   1.1118   0.07053   0.06557  -0.0023  0.0039  1.0000  -9.0144   0.0000   0.0000   0.0000   0.2339
  14.300   1.1065   0.07274   0.06787  -0.0032  0.0039  1.0000  -8.9962   0.0000   0.0000   0.0000   0.2346
  14.400   1.1010   0.07505   0.07025  -0.0042  0.0039  1.0000  -8.9735   0.0000   0.0000   0.0000   0.2354
  14.500   1.0955   0.07746   0.07274  -0.0053  0.0039  1.0000  -8.9459   0.0000   0.0000   0.0000   0.2362
  14.600   1.0897   0.07998   0.07533  -0.0066  0.0039  1.0000  -8.9129   0.0000   0.0000   0.0000   0.2372
  14.700   1.0838   0.08260   0.07802  -0.0079  0.0040  1.0000  -8.8745   0.0000   0.0000   0.0000   0.2383
  14.800   1.0777   0.08533   0.08083  -0.0094  0.0040  1.0000  -8.8304   0.0000   0.0000   0.0000   0.2396
  14.900   1.0715   0.08818   0.08375  -0.0109  0.0040  1.0000  -8.7803   0.0000   0.0000   0.0000   0.2409
  15.000   1.0652   0.09115   0.08679  -0.0126  0.0040  1.0000  -8.7238   0.0000   0.0000   0.0000   0.2424


