xflr5 v6.59

 Calculated polar for: SF-5

 1 1 Reynolds number fixed          Mach number fixed         

 xtrf =   1.000 (top)        1.000 (bottom)
 Mach =   0.050     Re =     0.200 e 6     Ncrit =   9.000

  alpha     CL        CD       CDp       Cm    Top Xtr Bot Xtr   Cpmin    Chinge    XCp    
 ------- -------- --------- --------- -------- ------- ------- -------- --------- ---------
  -5.000  -0.2461   0.01708   0.01001  -0.0667  0.9411  0.0543  -2.4587   0.0000   0.0000   0.0000  -0.0268
  -4.900  -0.2345   0.01639   0.00915  -0.0667  0.9374  0.0546  -2.4287   0.0000   0.0000   0.0000  -0.0405
  -4.800  -0.2226   0.01552   0.00819  -0.0669  0.9344  0.0550  -2.3907   0.0000   0.0000   0.0000  -0.0570
  -4.700  -0.2103   0.01480   0.00745  -0.0673  0.9316  0.0557  -2.3371   0.0000   0.0000   0.0000  -0.0766
  -4.600  -0.1975   0.01433   0.00699  -0.0677  0.9290  0.0567  -2.2720   0.0000   0.0000   0.0000  -0.0996
  -4.500  -0.1846   0.01395   0.00659  -0.0681  0.9265  0.0581  -2.2079   0.0000   0.0000   0.0000  -0.1258
  -4.400  -0.1715   0.01355   0.00609  -0.0684  0.9241  0.0596  -2.1531   0.0000   0.0000   0.0000  -0.1561
  -4.300  -0.1583   0.01315   0.00554  -0.0687  0.9218  0.0609  -2.1095   0.0000   0.0000   0.0000  -0.1915
  -4.200  -0.1488   0.01287   0.00515  -0.0682  0.9174  0.0617  -2.0787   0.0000   0.0000   0.0000  -0.2166
  -4.100  -0.1391   0.01233   0.00465  -0.0680  0.9134  0.0627  -2.0366   0.0000   0.0000   0.0000  -0.2478
  -4.000  -0.1285   0.01199   0.00433  -0.0679  0.9096  0.0639  -1.9883   0.0000   0.0000   0.0000  -0.2875
  -3.900  -0.1176   0.01170   0.00402  -0.0678  0.9062  0.0653  -1.9404   0.0000   0.0000   0.0000  -0.3365
  -3.800  -0.1065   0.01146   0.00373  -0.0677  0.9030  0.0672  -1.8926   0.0000   0.0000   0.0000  -0.3963
  -3.700  -0.0951   0.01130   0.00347  -0.0676  0.9001  0.0691  -1.8475   0.0000   0.0000   0.0000  -0.4713
  -3.600  -0.0846   0.01086   0.00311  -0.0675  0.8974  0.0711  -1.7963   0.0000   0.0000   0.0000  -0.5598
  -3.500  -0.0744   0.01065   0.00291  -0.0673  0.8942  0.0731  -1.7465   0.0000   0.0000   0.0000  -0.6682
  -3.400  -0.0648   0.01046   0.00270  -0.0670  0.8902  0.0751  -1.7024   0.0000   0.0000   0.0000  -0.7988
  -3.300  -0.0547   0.01031   0.00248  -0.0667  0.8863  0.0771  -1.6589   0.0000   0.0000   0.0000  -0.9861
  -3.200  -0.0453   0.00998   0.00223  -0.0664  0.8828  0.0795  -1.6106   0.0000   0.0000   0.0000  -1.2366
  -3.100  -0.0351   0.00981   0.00207  -0.0661  0.8795  0.0827  -1.5599   0.0000   0.0000   0.0000  -1.6557
  -3.000  -0.0249   0.00966   0.00187  -0.0658  0.8764  0.0861  -1.5168   0.0000   0.0000   0.0000  -2.4306
  -2.900  -0.0152   0.00941   0.00168  -0.0655  0.8737  0.0895  -1.4736   0.0000   0.0000   0.0000  -4.1206
  -2.800  -0.0049   0.00927   0.00152  -0.0652  0.8711  0.0936  -1.4322   0.0000   0.0000   0.0000  -13.2418
  -2.700   0.0045   0.00908   0.00137  -0.0650  0.8677  0.0978  -1.3915   0.0000   0.0000   0.0000  14.7254
  -2.600   0.0144   0.00896   0.00125  -0.0648  0.8641  0.1037  -1.3497   0.0000   0.0000   0.0000   4.7959
  -2.500   0.0240   0.00877   0.00112  -0.0645  0.8606  0.1103  -1.3077   0.0000   0.0000   0.0000   2.9717
  -2.400   0.0337   0.00859   0.00098  -0.0642  0.8573  0.1188  -1.2667   0.0000   0.0000   0.0000   2.1746
  -2.300   0.0435   0.00840   0.00084  -0.0640  0.8543  0.1312  -1.2257   0.0000   0.0000   0.0000   1.7346
  -2.200   0.0531   0.00816   0.00071  -0.0637  0.8515  0.1541  -1.1863   0.0000   0.0000   0.0000   1.4615
  -2.000   0.0669   0.01078   0.00448  -0.0634  0.8500  0.4498  -1.1431   0.0000   0.0000   0.0000   1.2065
  -1.900   0.0741   0.01045   0.00449  -0.0625  0.8474  0.5485  -1.1044   0.0000   0.0000   0.0000   1.1014
  -1.800   0.0818   0.01025   0.00453  -0.0616  0.8448  0.6163  -1.0663   0.0000   0.0000   0.0000   1.0097
  -1.700   0.0894   0.01007   0.00456  -0.0608  0.8414  0.6708  -1.0284   0.0000   0.0000   0.0000   0.9351
  -1.600   0.0972   0.00992   0.00459  -0.0598  0.8381  0.7222  -0.9898   0.0000   0.0000   0.0000   0.8700
  -1.500   0.1055   0.00978   0.00461  -0.0588  0.8350  0.7726  -0.9501   0.0000   0.0000   0.0000   0.8118
  -1.400   0.1157   0.00967   0.00464  -0.0581  0.8322  0.8234  -0.9063   0.0000   0.0000   0.0000   0.7558
  -1.300   0.1328   0.00959   0.00464  -0.0588  0.8300  0.8767  -0.8487   0.0000   0.0000   0.0000   0.6953
  -1.200   0.1591   0.00956   0.00461  -0.0614  0.8283  0.9194  -0.7737   0.0000   0.0000   0.0000   0.6381
  -1.100   0.1844   0.00955   0.00457  -0.0640  0.8266  0.9453  -0.7045   0.0000   0.0000   0.0000   0.5987
  -1.000   0.2104   0.00956   0.00452  -0.0668  0.8249  0.9616  -0.6392   0.0000   0.0000   0.0000   0.5688
  -0.900   0.2317   0.00960   0.00450  -0.0687  0.8229  0.9757  -0.5832   0.0000   0.0000   0.0000   0.5474
  -0.800   0.2683   0.00957   0.00440  -0.0738  0.8217  0.9916  -0.5020   0.0000   0.0000   0.0000   0.5256
  -0.700   0.2992   0.00957   0.00434  -0.0778  0.8199  1.0000  -0.4872   0.0000   0.0000   0.0000   0.5104
  -0.600   0.3059   0.00958   0.00433  -0.0771  0.8163  1.0000  -0.4912   0.0000   0.0000   0.0000   0.5024
  -0.500   0.3130   0.00960   0.00432  -0.0765  0.8128  1.0000  -0.4956   0.0000   0.0000   0.0000   0.4944
  -0.400   0.3205   0.00962   0.00431  -0.0758  0.8094  1.0000  -0.5003   0.0000   0.0000   0.0000   0.4866
  -0.300   0.3283   0.00963   0.00428  -0.0752  0.8062  1.0000  -0.5053   0.0000   0.0000   0.0000   0.4789
  -0.200   0.3363   0.00965   0.00426  -0.0746  0.8033  1.0000  -0.5104   0.0000   0.0000   0.0000   0.4715
  -0.100   0.3446   0.00968   0.00424  -0.0740  0.8006  1.0000  -0.5158   0.0000   0.0000   0.0000   0.4643
   0.000   0.3530   0.00972   0.00423  -0.0734  0.7981  1.0000  -0.5214   0.0000   0.0000   0.0000   0.4574
   0.100   0.3615   0.00978   0.00426  -0.0729  0.7953  1.0000  -0.5269   0.0000   0.0000   0.0000   0.4510
   0.200   0.3700   0.00983   0.00430  -0.0725  0.7920  1.0000  -0.5324   0.0000   0.0000   0.0000   0.4451
   0.300   0.3787   0.00987   0.00432  -0.0720  0.7887  1.0000  -0.5382   0.0000   0.0000   0.0000   0.4393
   0.400   0.3875   0.00991   0.00434  -0.0715  0.7855  1.0000  -0.5442   0.0000   0.0000   0.0000   0.4337
   0.500   0.3965   0.00994   0.00435  -0.0711  0.7825  1.0000  -0.5505   0.0000   0.0000   0.0000   0.4283
   0.600   0.4056   0.00998   0.00435  -0.0706  0.7797  1.0000  -0.5602   0.0000   0.0000   0.0000   0.4231
   0.700   0.4148   0.01001   0.00435  -0.0702  0.7771  1.0000  -0.5705   0.0000   0.0000   0.0000   0.4180
   0.800   0.4241   0.01006   0.00436  -0.0697  0.7747  1.0000  -0.5814   0.0000   0.0000   0.0000   0.4131
   0.900   0.4334   0.01014   0.00441  -0.0693  0.7722  1.0000  -0.5926   0.0000   0.0000   0.0000   0.4085
   1.000   0.4426   0.01019   0.00447  -0.0690  0.7690  1.0000  -0.6040   0.0000   0.0000   0.0000   0.4044
   1.100   0.4518   0.01024   0.00452  -0.0686  0.7656  1.0000  -0.6160   0.0000   0.0000   0.0000   0.4003
   1.200   0.4611   0.01029   0.00456  -0.0682  0.7624  1.0000  -0.6287   0.0000   0.0000   0.0000   0.3963
   1.300   0.4706   0.01033   0.00458  -0.0679  0.7593  1.0000  -0.6421   0.0000   0.0000   0.0000   0.3925
   1.400   0.4802   0.01036   0.00459  -0.0675  0.7564  1.0000  -0.6562   0.0000   0.0000   0.0000   0.3887
   1.500   0.4899   0.01040   0.00460  -0.0671  0.7538  1.0000  -0.6713   0.0000   0.0000   0.0000   0.3850
   1.600   0.4997   0.01045   0.00462  -0.0667  0.7512  1.0000  -0.6917   0.0000   0.0000   0.0000   0.3815
   1.700   0.5095   0.01052   0.00466  -0.0663  0.7487  1.0000  -0.7148   0.0000   0.0000   0.0000   0.3781
   1.800   0.5187   0.01057   0.00474  -0.0660  0.7449  1.0000  -0.7380   0.0000   0.0000   0.0000   0.3751
   1.900   0.5280   0.01061   0.00479  -0.0656  0.7408  1.0000  -0.7624   0.0000   0.0000   0.0000   0.3720
   2.000   0.5375   0.01062   0.00479  -0.0651  0.7365  1.0000  -0.7883   0.0000   0.0000   0.0000   0.3689
   2.100   0.5472   0.01061   0.00476  -0.0647  0.7324  1.0000  -0.8154   0.0000   0.0000   0.0000   0.3658
   2.200   0.5570   0.01061   0.00471  -0.0642  0.7286  1.0000  -0.8437   0.0000   0.0000   0.0000   0.3627
   2.300   0.5667   0.01065   0.00472  -0.0637  0.7248  1.0000  -0.8732   0.0000   0.0000   0.0000   0.3599
   2.400   0.5758   0.01067   0.00477  -0.0633  0.7197  1.0000  -0.9016   0.0000   0.0000   0.0000   0.3573
   2.500   0.5853   0.01068   0.00478  -0.0629  0.7150  1.0000  -0.9323   0.0000   0.0000   0.0000   0.3547
   2.600   0.5952   0.01069   0.00478  -0.0625  0.7109  1.0000  -0.9645   0.0000   0.0000   0.0000   0.3522
   2.700   0.6052   0.01070   0.00477  -0.0621  0.7072  1.0000  -0.9975   0.0000   0.0000   0.0000   0.3497
   2.800   0.6153   0.01073   0.00477  -0.0617  0.7039  1.0000  -1.0318   0.0000   0.0000   0.0000   0.3473
   2.900   0.6249   0.01077   0.00482  -0.0613  0.6997  1.0000  -1.0667   0.0000   0.0000   0.0000   0.3451
   3.000   0.6345   0.01080   0.00487  -0.0609  0.6948  1.0000  -1.1016   0.0000   0.0000   0.0000   0.3429
   3.100   0.6443   0.01080   0.00489  -0.0606  0.6901  1.0000  -1.1376   0.0000   0.0000   0.0000   0.3408
   3.200   0.6543   0.01080   0.00487  -0.0602  0.6858  1.0000  -1.1755   0.0000   0.0000   0.0000   0.3387
   3.300   0.6645   0.01081   0.00484  -0.0598  0.6818  1.0000  -1.2159   0.0000   0.0000   0.0000   0.3366
   3.400   0.6743   0.01084   0.00488  -0.0594  0.6769  1.0000  -1.2553   0.0000   0.0000   0.0000   0.3346
   3.500   0.6837   0.01084   0.00491  -0.0590  0.6707  1.0000  -1.2946   0.0000   0.0000   0.0000   0.3327
   3.600   0.6935   0.01082   0.00489  -0.0585  0.6647  1.0000  -1.3352   0.0000   0.0000   0.0000   0.3308
   3.700   0.7037   0.01080   0.00482  -0.0581  0.6593  1.0000  -1.3791   0.0000   0.0000   0.0000   0.3288
   3.800   0.7132   0.01080   0.00485  -0.0577  0.6526  1.0000  -1.4226   0.0000   0.0000   0.0000   0.3270
   3.900   0.7227   0.01079   0.00485  -0.0572  0.6454  1.0000  -1.4667   0.0000   0.0000   0.0000   0.3252
   4.000   0.7326   0.01077   0.00481  -0.0568  0.6391  1.0000  -1.5123   0.0000   0.0000   0.0000   0.3235
   4.100   0.7425   0.01079   0.00481  -0.0564  0.6329  1.0000  -1.5579   0.0000   0.0000   0.0000   0.3218
   4.200   0.7520   0.01079   0.00485  -0.0560  0.6252  1.0000  -1.6028   0.0000   0.0000   0.0000   0.3202
   4.300   0.7618   0.01079   0.00483  -0.0555  0.6182  1.0000  -1.6520   0.0000   0.0000   0.0000   0.3186
   4.400   0.7716   0.01081   0.00483  -0.0551  0.6112  1.0000  -1.7023   0.0000   0.0000   0.0000   0.3171
   4.500   0.7811   0.01081   0.00489  -0.0547  0.6023  1.0000  -1.7519   0.0000   0.0000   0.0000   0.3156
   4.600   0.7908   0.01083   0.00487  -0.0543  0.5943  1.0000  -1.8030   0.0000   0.0000   0.0000   0.3140
   4.700   0.8003   0.01085   0.00492  -0.0539  0.5847  1.0000  -1.8534   0.0000   0.0000   0.0000   0.3126
   4.800   0.8098   0.01087   0.00492  -0.0534  0.5747  1.0000  -1.9044   0.0000   0.0000   0.0000   0.3111
   4.900   0.8192   0.01090   0.00497  -0.0530  0.5637  1.0000  -1.9554   0.0000   0.0000   0.0000   0.3098
   5.000   0.8283   0.01095   0.00497  -0.0524  0.5519  1.0000  -2.0084   0.0000   0.0000   0.0000   0.3083
   5.100   0.8374   0.01099   0.00502  -0.0520  0.5376  1.0000  -2.0635   0.0000   0.0000   0.0000   0.3069
   5.200   0.8463   0.01106   0.00506  -0.0514  0.5220  1.0000  -2.1185   0.0000   0.0000   0.0000   0.3056
   5.300   0.8549   0.01115   0.00511  -0.0508  0.5037  1.0000  -2.1730   0.0000   0.0000   0.0000   0.3041
   5.400   0.8630   0.01128   0.00516  -0.0502  0.4819  1.0000  -2.2265   0.0000   0.0000   0.0000   0.3027
   5.500   0.8704   0.01146   0.00523  -0.0494  0.4564  1.0000  -2.2785   0.0000   0.0000   0.0000   0.3012
   5.600   0.8772   0.01169   0.00533  -0.0486  0.4258  1.0000  -2.3289   0.0000   0.0000   0.0000   0.2998
   5.700   0.8830   0.01201   0.00547  -0.0477  0.3900  1.0000  -2.3763   0.0000   0.0000   0.0000   0.2982
   5.900   0.8921   0.01289   0.00591  -0.0455  0.3097  1.0000  -2.4636   0.0000   0.0000   0.0000   0.2951
   6.000   0.8961   0.01340   0.00619  -0.0445  0.2713  1.0000  -2.5051   0.0000   0.0000   0.0000   0.2936
   6.100   0.9001   0.01392   0.00651  -0.0434  0.2363  1.0000  -2.5496   0.0000   0.0000   0.0000   0.2921
   6.200   0.9044   0.01444   0.00683  -0.0424  0.2047  1.0000  -2.5949   0.0000   0.0000   0.0000   0.2907
   6.300   0.9086   0.01497   0.00717  -0.0415  0.1770  1.0000  -2.6394   0.0000   0.0000   0.0000   0.2892
   6.400   0.9130   0.01547   0.00753  -0.0405  0.1544  1.0000  -2.6842   0.0000   0.0000   0.0000   0.2879
   6.500   0.9179   0.01594   0.00788  -0.0396  0.1371  1.0000  -2.7294   0.0000   0.0000   0.0000   0.2865
   6.600   0.9230   0.01638   0.00822  -0.0386  0.1244  1.0000  -2.7754   0.0000   0.0000   0.0000   0.2852
   6.700   0.9285   0.01680   0.00857  -0.0378  0.1148  1.0000  -2.8224   0.0000   0.0000   0.0000   0.2839
   6.800   0.9340   0.01720   0.00891  -0.0369  0.1074  1.0000  -2.8698   0.0000   0.0000   0.0000   0.2826
   7.000   0.9455   0.01794   0.00958  -0.0352  0.0961  1.0000  -2.9666   0.0000   0.0000   0.0000   0.2802
   7.100   0.9509   0.01833   0.00993  -0.0344  0.0919  1.0000  -3.0140   0.0000   0.0000   0.0000   0.2789
   7.200   0.9568   0.01868   0.01026  -0.0336  0.0880  1.0000  -3.0638   0.0000   0.0000   0.0000   0.2777
   7.300   0.9624   0.01906   0.01062  -0.0327  0.0846  1.0000  -3.1112   0.0000   0.0000   0.0000   0.2765
   7.400   0.9683   0.01940   0.01095  -0.0319  0.0815  1.0000  -3.1611   0.0000   0.0000   0.0000   0.2754
   7.500   0.9732   0.01983   0.01135  -0.0310  0.0791  1.0000  -3.2121   0.0000   0.0000   0.0000   0.2742
   7.600   0.9797   0.02015   0.01170  -0.0302  0.0763  1.0000  -3.2673   0.0000   0.0000   0.0000   0.2731
   7.700   0.9853   0.02052   0.01204  -0.0294  0.0741  1.0000  -3.3228   0.0000   0.0000   0.0000   0.2719
   7.800   0.9908   0.02095   0.01245  -0.0286  0.0721  1.0000  -3.3757   0.0000   0.0000   0.0000   0.2708
   7.900   0.9973   0.02127   0.01281  -0.0278  0.0698  1.0000  -3.4318   0.0000   0.0000   0.0000   0.2698
   8.000   1.0032   0.02164   0.01315  -0.0271  0.0679  1.0000  -3.4894   0.0000   0.0000   0.0000   0.2688
   8.100   1.0089   0.02214   0.01358  -0.0264  0.0663  1.0000  -3.5448   0.0000   0.0000   0.0000   0.2678
   8.200   1.0158   0.02247   0.01399  -0.0257  0.0645  1.0000  -3.5996   0.0000   0.0000   0.0000   0.2668
   8.300   1.0225   0.02285   0.01438  -0.0250  0.0629  1.0000  -3.6567   0.0000   0.0000   0.0000   0.2658
   8.400   1.0293   0.02328   0.01476  -0.0244  0.0615  1.0000  -3.7174   0.0000   0.0000   0.0000   0.2650
   8.500   1.0369   0.02383   0.01527  -0.0240  0.0601  1.0000  -3.7782   0.0000   0.0000   0.0000   0.2643
   8.600   1.0440   0.02418   0.01571  -0.0233  0.0586  1.0000  -3.8328   0.0000   0.0000   0.0000   0.2634
   8.700   1.0511   0.02456   0.01612  -0.0228  0.0572  1.0000  -3.8921   0.0000   0.0000   0.0000   0.2626
   8.800   1.0587   0.02498   0.01651  -0.0223  0.0559  1.0000  -3.9574   0.0000   0.0000   0.0000   0.2619
   8.900   1.0689   0.02564   0.01707  -0.0224  0.0546  1.0000  -4.0300   0.0000   0.0000   0.0000   0.2616
   9.000   1.0760   0.02604   0.01758  -0.0218  0.0535  1.0000  -4.0814   0.0000   0.0000   0.0000   0.2608
   9.100   1.0845   0.02652   0.01811  -0.0214  0.0524  1.0000  -4.1461   0.0000   0.0000   0.0000   0.2601
   9.200   1.0931   0.02700   0.01862  -0.0211  0.0514  1.0000  -4.2166   0.0000   0.0000   0.0000   0.2596
   9.300   1.1022   0.02750   0.01910  -0.0209  0.0504  1.0000  -4.2932   0.0000   0.0000   0.0000   0.2591
   9.400   1.1166   0.02837   0.01985  -0.0217  0.0493  1.0000  -4.3927   0.0000   0.0000   0.0000   0.2594
   9.500   1.1221   0.02879   0.02043  -0.0208  0.0485  1.0000  -4.4421   0.0000   0.0000   0.0000   0.2584
   9.600   1.1290   0.02928   0.02103  -0.0202  0.0475  1.0000  -4.5003   0.0000   0.0000   0.0000   0.2576
   9.700   1.1367   0.02978   0.02159  -0.0197  0.0466  1.0000  -4.5673   0.0000   0.0000   0.0000   0.2570
   9.800   1.1451   0.03028   0.02209  -0.0194  0.0457  1.0000  -4.6420   0.0000   0.0000   0.0000   0.2565
   9.900   1.1545   0.03084   0.02264  -0.0194  0.0449  1.0000  -4.7237   0.0000   0.0000   0.0000   0.2562
  10.000   1.1698   0.03192   0.02364  -0.0203  0.0441  1.0000  -4.8223   0.0000   0.0000   0.0000   0.2566
  10.100   1.1744   0.03251   0.02441  -0.0194  0.0436  1.0000  -4.8615   0.0000   0.0000   0.0000   0.2556
  10.200   1.1802   0.03322   0.02527  -0.0186  0.0431  1.0000  -4.9042   0.0000   0.0000   0.0000   0.2547
  10.300   1.1865   0.03400   0.02618  -0.0180  0.0426  1.0000  -4.9495   0.0000   0.0000   0.0000   0.2540
  10.400   1.1927   0.03476   0.02707  -0.0174  0.0420  1.0000  -4.9970   0.0000   0.0000   0.0000   0.2533
  10.500   1.1988   0.03549   0.02789  -0.0168  0.0415  1.0000  -5.0489   0.0000   0.0000   0.0000   0.2526
  10.600   1.2052   0.03615   0.02861  -0.0163  0.0409  1.0000  -5.1087   0.0000   0.0000   0.0000   0.2520
  10.700   1.2134   0.03675   0.02921  -0.0161  0.0403  1.0000  -5.2257   0.0000   0.0000   0.0000   0.2516
  10.800   1.2235   0.03746   0.02986  -0.0162  0.0397  1.0000  -5.3639   0.0000   0.0000   0.0000   0.2514
  10.900   1.2332   0.03868   0.03109  -0.0164  0.0391  1.0000  -5.4847   0.0000   0.0000   0.0000   0.2514
  11.000   1.2321   0.03939   0.03201  -0.0148  0.0388  1.0000  -5.5226   0.0000   0.0000   0.0000   0.2500
  11.100   1.2316   0.04023   0.03303  -0.0134  0.0385  1.0000  -5.5629   0.0000   0.0000   0.0000   0.2487
  11.200   1.2315   0.04115   0.03411  -0.0120  0.0382  1.0000  -5.6054   0.0000   0.0000   0.0000   0.2475
  11.300   1.2315   0.04214   0.03526  -0.0108  0.0380  1.0000  -5.6478   0.0000   0.0000   0.0000   0.2463
  11.400   1.2307   0.04313   0.03639  -0.0094  0.0379  1.0000  -5.6853   0.0000   0.0000   0.0000   0.2451
  11.500   1.2288   0.04410   0.03749  -0.0079  0.0377  1.0000  -5.7170   0.0000   0.0000   0.0000   0.2437
  11.600   1.2263   0.04506   0.03858  -0.0063  0.0376  1.0000  -5.7442   0.0000   0.0000   0.0000   0.2424
  11.700   1.2231   0.04605   0.03968  -0.0047  0.0375  1.0000  -5.7672   0.0000   0.0000   0.0000   0.2409
  11.800   1.2193   0.04705   0.04080  -0.0031  0.0374  1.0000  -5.7859   0.0000   0.0000   0.0000   0.2395
  11.900   1.2150   0.04808   0.04195  -0.0016  0.0373  1.0000  -5.8004   0.0000   0.0000   0.0000   0.2382
  12.000   1.2102   0.04915   0.04312  -0.0001  0.0373  1.0000  -5.8109   0.0000   0.0000   0.0000   0.2368
  12.100   1.2049   0.05025   0.04434   0.0014  0.0372  1.0000  -5.8170   0.0000   0.0000   0.0000   0.2355
  12.300   1.1931   0.05259   0.04691   0.0040  0.0372  1.0000  -5.8172   0.0000   0.0000   0.0000   0.2331
  12.400   1.1865   0.05384   0.04826   0.0051  0.0372  1.0000  -5.8114   0.0000   0.0000   0.0000   0.2319
  12.500   1.1792   0.05514   0.04967   0.0062  0.0373  1.0000  -5.7988   0.0000   0.0000   0.0000   0.2309
  12.600   1.1714   0.05651   0.05115   0.0072  0.0373  1.0000  -5.7815   0.0000   0.0000   0.0000   0.2299
  12.700   1.1633   0.05793   0.05267   0.0080  0.0374  1.0000  -5.7611   0.0000   0.0000   0.0000   0.2290
  12.800   1.1548   0.05942   0.05426   0.0087  0.0374  1.0000  -5.7377   0.0000   0.0000   0.0000   0.2282
  12.900   1.1461   0.06097   0.05590   0.0093  0.0375  1.0000  -5.7115   0.0000   0.0000   0.0000   0.2274
  13.000   1.1373   0.06258   0.05760   0.0098  0.0376  1.0000  -5.6828   0.0000   0.0000   0.0000   0.2269
  13.100   1.1282   0.06427   0.05938   0.0101  0.0377  1.0000  -5.6519   0.0000   0.0000   0.0000   0.2264
  13.200   1.1191   0.06603   0.06123   0.0102  0.0378  1.0000  -5.6190   0.0000   0.0000   0.0000   0.2260
  13.300   1.1098   0.06787   0.06314   0.0102  0.0378  1.0000  -5.5842   0.0000   0.0000   0.0000   0.2258
  13.400   1.1005   0.06978   0.06513   0.0100  0.0379  1.0000  -5.5479   0.0000   0.0000   0.0000   0.2257
  13.500   1.0912   0.07176   0.06719   0.0098  0.0380  1.0000  -5.5100   0.0000   0.0000   0.0000   0.2257
  13.600   1.0820   0.07382   0.06932   0.0093  0.0381  1.0000  -5.4711   0.0000   0.0000   0.0000   0.2259
  13.700   1.0728   0.07595   0.07152   0.0087  0.0382  1.0000  -5.4313   0.0000   0.0000   0.0000   0.2262
  13.800   1.0637   0.07815   0.07379   0.0080  0.0383  1.0000  -5.3910   0.0000   0.0000   0.0000   0.2267
  13.900   1.0548   0.08042   0.07612   0.0072  0.0384  1.0000  -5.3504   0.0000   0.0000   0.0000   0.2272
  14.000   1.0462   0.08275   0.07850   0.0063  0.0385  1.0000  -5.3102   0.0000   0.0000   0.0000   0.2279
  14.100   1.0380   0.08513   0.08094   0.0052  0.0387  1.0000  -5.2709   0.0000   0.0000   0.0000   0.2287
  14.200   1.0301   0.08755   0.08340   0.0041  0.0387  1.0000  -5.2334   0.0000   0.0000   0.0000   0.2296
  14.300   1.0229   0.09000   0.08589   0.0029  0.0388  1.0000  -5.1988   0.0000   0.0000   0.0000   0.2306
  14.400   1.0163   0.09244   0.08837   0.0017  0.0389  1.0000  -5.1682   0.0000   0.0000   0.0000   0.2316
  14.500   1.0106   0.09486   0.09082   0.0005  0.0390  1.0000  -5.1430   0.0000   0.0000   0.0000   0.2327
  14.600   1.0059   0.09724   0.09323  -0.0006  0.0391  1.0000  -5.1246   0.0000   0.0000   0.0000   0.2337
  14.700   1.0023   0.09954   0.09555  -0.0017  0.0392  1.0000  -5.1144   0.0000   0.0000   0.0000   0.2346
  15.000   0.7689   0.17754   0.17405  -0.0530  0.0673  1.0000  -1.9046   0.0000   0.0000   0.0000   0.3057


