xflr5 v6.59

 Calculated polar for: SF-7

 1 1 Reynolds number fixed          Mach number fixed         

 xtrf =   1.000 (top)        1.000 (bottom)
 Mach =   0.050     Re =     0.200 e 6     Ncrit =   9.000

  alpha     CL        CD       CDp       Cm    Top Xtr Bot Xtr   Cpmin    Chinge    XCp    
 ------- -------- --------- --------- -------- ------- ------- -------- --------- ---------
  -3.000  -0.0359   0.01533   0.00784  -0.0708  0.9337  0.0679  -1.9204   0.0000   0.0000   0.0000  -1.7476
  -2.900  -0.0208   0.01500   0.00756  -0.0716  0.9316  0.0741  -1.8557   0.0000   0.0000   0.0000  -3.2299
  -2.800  -0.0050   0.01467   0.00727  -0.0725  0.9298  0.0818  -1.7902   0.0000   0.0000   0.0000  -14.2864
  -2.700   0.0113   0.01433   0.00696  -0.0735  0.9283  0.0912  -1.7262   0.0000   0.0000   0.0000   6.8463
  -2.600   0.0279   0.01395   0.00666  -0.0746  0.9269  0.1036  -1.6580   0.0000   0.0000   0.0000   2.9513
  -2.500   0.0450   0.01358   0.00639  -0.0759  0.9257  0.1230  -1.5857   0.0000   0.0000   0.0000   1.9516
  -2.400   0.0622   0.01314   0.00613  -0.0772  0.9246  0.1547  -1.5130   0.0000   0.0000   0.0000   1.5015
  -2.300   0.0792   0.01264   0.00592  -0.0785  0.9236  0.2166  -1.4376   0.0000   0.0000   0.0000   1.2506
  -2.200   0.0955   0.01214   0.00575  -0.0798  0.9225  0.3017  -1.3602   0.0000   0.0000   0.0000   1.0925
  -2.100   0.1112   0.01163   0.00563  -0.0809  0.9214  0.4015  -1.2830   0.0000   0.0000   0.0000   0.9832
  -2.000   0.1133   0.01137   0.00565  -0.0792  0.9148  0.4726  -1.2451   0.0000   0.0000   0.0000   0.9534
  -1.900   0.1218   0.01100   0.00568  -0.0785  0.9108  0.5767  -1.1880   0.0000   0.0000   0.0000   0.8987
  -1.800   0.1328   0.01075   0.00568  -0.0781  0.9078  0.6587  -1.1238   0.0000   0.0000   0.0000   0.8421
  -1.700   0.1452   0.01057   0.00564  -0.0780  0.9053  0.7125  -1.0562   0.0000   0.0000   0.0000   0.7903
  -1.600   0.1582   0.01040   0.00556  -0.0779  0.9030  0.7536  -0.9877   0.0000   0.0000   0.0000   0.7453
  -1.500   0.1715   0.01024   0.00547  -0.0779  0.9009  0.7880  -0.9190   0.0000   0.0000   0.0000   0.7065
  -1.400   0.1850   0.01009   0.00537  -0.0779  0.8990  0.8191  -0.8507   0.0000   0.0000   0.0000   0.6729
  -1.300   0.1986   0.00995   0.00526  -0.0779  0.8971  0.8475  -0.7833   0.0000   0.0000   0.0000   0.6436
  -1.200   0.2133   0.00982   0.00516  -0.0780  0.8954  0.8757  -0.7200   0.0000   0.0000   0.0000   0.6170
  -1.100   0.2215   0.00980   0.00517  -0.0771  0.8896  0.9014  -0.6772   0.0000   0.0000   0.0000   0.5991
  -1.000   0.2409   0.00972   0.00509  -0.0784  0.8865  0.9295  -0.6105   0.0000   0.0000   0.0000   0.5763
  -0.900   0.2660   0.00964   0.00497  -0.0810  0.8844  0.9534  -0.5404   0.0000   0.0000   0.0000   0.5551
  -0.800   0.2911   0.00955   0.00484  -0.0837  0.8822  0.9719  -0.5118   0.0000   0.0000   0.0000   0.5376
  -0.700   0.3160   0.00945   0.00467  -0.0864  0.8799  0.9871  -0.5309   0.0000   0.0000   0.0000   0.5233
  -0.600   0.3412   0.00936   0.00452  -0.0891  0.8776  0.9982  -0.5506   0.0000   0.0000   0.0000   0.5110
  -0.500   0.3558   0.00926   0.00437  -0.0897  0.8741  1.0000  -0.5644   0.0000   0.0000   0.0000   0.5019
  -0.400   0.3681   0.00918   0.00423  -0.0899  0.8705  1.0000  -0.5767   0.0000   0.0000   0.0000   0.4937
  -0.300   0.3728   0.00920   0.00421  -0.0887  0.8636  1.0000  -0.5845   0.0000   0.0000   0.0000   0.4873
  -0.200   0.3807   0.00918   0.00415  -0.0880  0.8575  1.0000  -0.5945   0.0000   0.0000   0.0000   0.4805
  -0.100   0.3908   0.00914   0.00405  -0.0877  0.8524  1.0000  -0.6060   0.0000   0.0000   0.0000   0.4736
   0.000   0.4021   0.00909   0.00394  -0.0875  0.8480  1.0000  -0.6189   0.0000   0.0000   0.0000   0.4668
   0.100   0.4128   0.00907   0.00387  -0.0873  0.8433  1.0000  -0.6313   0.0000   0.0000   0.0000   0.4605
   0.200   0.4202   0.00909   0.00386  -0.0865  0.8364  1.0000  -0.6416   0.0000   0.0000   0.0000   0.4548
   0.300   0.4298   0.00908   0.00381  -0.0861  0.8304  1.0000  -0.6539   0.0000   0.0000   0.0000   0.4491
   0.400   0.4405   0.00906   0.00373  -0.0858  0.8252  1.0000  -0.6670   0.0000   0.0000   0.0000   0.4436
   0.500   0.4523   0.00904   0.00365  -0.0857  0.8208  1.0000  -0.6811   0.0000   0.0000   0.0000   0.4383
   0.600   0.4608   0.00907   0.00366  -0.0852  0.8141  1.0000  -0.6931   0.0000   0.0000   0.0000   0.4334
   0.700   0.4703   0.00908   0.00364  -0.0847  0.8077  1.0000  -0.7059   0.0000   0.0000   0.0000   0.4287
   0.800   0.4807   0.00908   0.00359  -0.0845  0.8021  1.0000  -0.7197   0.0000   0.0000   0.0000   0.4241
   0.900   0.4921   0.00908   0.00352  -0.0843  0.7973  1.0000  -0.7347   0.0000   0.0000   0.0000   0.4197
   1.000   0.5017   0.00912   0.00353  -0.0840  0.7911  1.0000  -0.7482   0.0000   0.0000   0.0000   0.4156
   1.100   0.5113   0.00914   0.00353  -0.0836  0.7844  1.0000  -0.7618   0.0000   0.0000   0.0000   0.4116
   1.200   0.5217   0.00915   0.00350  -0.0833  0.7785  1.0000  -0.7767   0.0000   0.0000   0.0000   0.4077
   1.300   0.5329   0.00917   0.00345  -0.0831  0.7734  1.0000  -0.7924   0.0000   0.0000   0.0000   0.4039
   1.400   0.5427   0.00921   0.00347  -0.0828  0.7669  1.0000  -0.8069   0.0000   0.0000   0.0000   0.4004
   1.500   0.5524   0.00924   0.00348  -0.0824  0.7601  1.0000  -0.8218   0.0000   0.0000   0.0000   0.3970
   1.600   0.5629   0.00926   0.00346  -0.0822  0.7540  1.0000  -0.8377   0.0000   0.0000   0.0000   0.3937
   1.700   0.5741   0.00930   0.00342  -0.0820  0.7487  1.0000  -0.8542   0.0000   0.0000   0.0000   0.3905
   1.800   0.5836   0.00933   0.00346  -0.0816  0.7415  1.0000  -0.8694   0.0000   0.0000   0.0000   0.3874
   1.900   0.5936   0.00937   0.00347  -0.0813  0.7346  1.0000  -0.8856   0.0000   0.0000   0.0000   0.3845
   2.000   0.6043   0.00940   0.00347  -0.0811  0.7285  1.0000  -0.9026   0.0000   0.0000   0.0000   0.3816
   2.100   0.6148   0.00945   0.00348  -0.0809  0.7223  1.0000  -0.9195   0.0000   0.0000   0.0000   0.3788
   2.200   0.6245   0.00949   0.00352  -0.0805  0.7148  1.0000  -0.9360   0.0000   0.0000   0.0000   0.3761
   2.300   0.6348   0.00953   0.00352  -0.0802  0.7080  1.0000  -0.9536   0.0000   0.0000   0.0000   0.3735
   2.500   0.6553   0.00963   0.00356  -0.0797  0.6942  1.0000  -0.9887   0.0000   0.0000   0.0000   0.3686
   2.600   0.6654   0.00968   0.00357  -0.0794  0.6868  1.0000  -1.0068   0.0000   0.0000   0.0000   0.3662
   2.700   0.6760   0.00974   0.00357  -0.0792  0.6805  1.0000  -1.0257   0.0000   0.0000   0.0000   0.3639
   2.800   0.6858   0.00979   0.00362  -0.0789  0.6726  1.0000  -1.0438   0.0000   0.0000   0.0000   0.3617
   2.900   0.6958   0.00984   0.00365  -0.0786  0.6648  1.0000  -1.0623   0.0000   0.0000   0.0000   0.3595
   3.000   0.7062   0.00992   0.00366  -0.0783  0.6580  1.0000  -1.0819   0.0000   0.0000   0.0000   0.3574
   3.100   0.7160   0.00997   0.00372  -0.0780  0.6497  1.0000  -1.1010   0.0000   0.0000   0.0000   0.3554
   3.200   0.7260   0.01003   0.00374  -0.0777  0.6416  1.0000  -1.1206   0.0000   0.0000   0.0000   0.3533
   3.300   0.7362   0.01011   0.00380  -0.0774  0.6343  1.0000  -1.1404   0.0000   0.0000   0.0000   0.3514
   3.400   0.7460   0.01016   0.00386  -0.0771  0.6254  1.0000  -1.1602   0.0000   0.0000   0.0000   0.3495
   3.500   0.7560   0.01024   0.00389  -0.0768  0.6173  1.0000  -1.1810   0.0000   0.0000   0.0000   0.3476
   3.600   0.7658   0.01031   0.00395  -0.0765  0.6088  1.0000  -1.2015   0.0000   0.0000   0.0000   0.3458
   3.700   0.7756   0.01038   0.00400  -0.0761  0.5998  1.0000  -1.2222   0.0000   0.0000   0.0000   0.3440
   3.800   0.7854   0.01048   0.00404  -0.0758  0.5915  1.0000  -1.2438   0.0000   0.0000   0.0000   0.3423
   3.900   0.7951   0.01055   0.00410  -0.0755  0.5818  1.0000  -1.2653   0.0000   0.0000   0.0000   0.3406
   4.100   0.8144   0.01072   0.00422  -0.0748  0.5630  1.0000  -1.3097   0.0000   0.0000   0.0000   0.3373
   4.200   0.8239   0.01083   0.00427  -0.0744  0.5537  1.0000  -1.3326   0.0000   0.0000   0.0000   0.3357
   4.300   0.8334   0.01091   0.00435  -0.0740  0.5433  1.0000  -1.3557   0.0000   0.0000   0.0000   0.3341
   4.400   0.8428   0.01104   0.00441  -0.0736  0.5336  1.0000  -1.3798   0.0000   0.0000   0.0000   0.3326
   4.500   0.8522   0.01113   0.00450  -0.0733  0.5225  1.0000  -1.4039   0.0000   0.0000   0.0000   0.3311
   4.600   0.8614   0.01125   0.00460  -0.0728  0.5123  1.0000  -1.4290   0.0000   0.0000   0.0000   0.3296
   4.700   0.8706   0.01136   0.00469  -0.0724  0.5009  1.0000  -1.4545   0.0000   0.0000   0.0000   0.3281
   4.800   0.8797   0.01149   0.00478  -0.0720  0.4899  1.0000  -1.4810   0.0000   0.0000   0.0000   0.3267
   4.900   0.8887   0.01163   0.00487  -0.0716  0.4786  1.0000  -1.5077   0.0000   0.0000   0.0000   0.3253
   5.000   0.8977   0.01175   0.00498  -0.0712  0.4667  1.0000  -1.5359   0.0000   0.0000   0.0000   0.3239
   5.100   0.9065   0.01191   0.00508  -0.0707  0.4553  1.0000  -1.5643   0.0000   0.0000   0.0000   0.3225
   5.200   0.9152   0.01207   0.00519  -0.0702  0.4434  1.0000  -1.5942   0.0000   0.0000   0.0000   0.3211
   5.300   0.9240   0.01221   0.00531  -0.0698  0.4312  1.0000  -1.6249   0.0000   0.0000   0.0000   0.3198
   5.400   0.9326   0.01238   0.00543  -0.0693  0.4193  1.0000  -1.7001   0.0000   0.0000   0.0000   0.3185
   5.500   0.9407   0.01257   0.00555  -0.0688  0.4057  1.0000  -1.7950   0.0000   0.0000   0.0000   0.3172
   5.600   0.9485   0.01276   0.00566  -0.0682  0.3904  1.0000  -1.8898   0.0000   0.0000   0.0000   0.3158
   5.700   0.9561   0.01296   0.00578  -0.0675  0.3740  1.0000  -1.9850   0.0000   0.0000   0.0000   0.3145
   5.800   0.9637   0.01316   0.00591  -0.0669  0.3572  1.0000  -2.0807   0.0000   0.0000   0.0000   0.3132
   5.900   0.9713   0.01338   0.00608  -0.0663  0.3419  1.0000  -2.1835   0.0000   0.0000   0.0000   0.3119
   6.000   0.9789   0.01359   0.00622  -0.0658  0.3269  1.0000  -2.2829   0.0000   0.0000   0.0000   0.3107
   6.100   0.9867   0.01381   0.00637  -0.0652  0.3139  1.0000  -2.3825   0.0000   0.0000   0.0000   0.3095
   6.200   0.9949   0.01401   0.00653  -0.0647  0.3035  1.0000  -2.4839   0.0000   0.0000   0.0000   0.3083
   6.300   1.0034   0.01420   0.00670  -0.0643  0.2941  1.0000  -2.5875   0.0000   0.0000   0.0000   0.3072
   6.400   1.0116   0.01440   0.00688  -0.0638  0.2857  1.0000  -2.6898   0.0000   0.0000   0.0000   0.3061
   6.500   1.0198   0.01461   0.00706  -0.0633  0.2771  1.0000  -2.7925   0.0000   0.0000   0.0000   0.3051
   6.600   1.0283   0.01479   0.00724  -0.0629  0.2690  1.0000  -2.8968   0.0000   0.0000   0.0000   0.3040
   6.700   1.0362   0.01501   0.00742  -0.0624  0.2604  1.0000  -2.9984   0.0000   0.0000   0.0000   0.3029
   6.900   1.0515   0.01545   0.00777  -0.0613  0.2387  1.0000  -3.2005   0.0000   0.0000   0.0000   0.3008
   7.000   1.0595   0.01566   0.00795  -0.0608  0.2287  1.0000  -3.3029   0.0000   0.0000   0.0000   0.2998
   7.100   1.0678   0.01585   0.00815  -0.0604  0.2214  1.0000  -3.4056   0.0000   0.0000   0.0000   0.2988
   7.200   1.0754   0.01608   0.00835  -0.0598  0.2145  1.0000  -3.5050   0.0000   0.0000   0.0000   0.2977
   7.300   1.0833   0.01629   0.00856  -0.0593  0.2046  1.0000  -3.5995   0.0000   0.0000   0.0000   0.2967
   7.400   1.0907   0.01652   0.00875  -0.0588  0.1935  1.0000  -3.6953   0.0000   0.0000   0.0000   0.2957
   7.500   1.0987   0.01672   0.00895  -0.0583  0.1850  1.0000  -3.7929   0.0000   0.0000   0.0000   0.2948
   7.600   1.1064   0.01694   0.00915  -0.0577  0.1764  1.0000  -3.8876   0.0000   0.0000   0.0000   0.2938
   7.700   1.1134   0.01720   0.00936  -0.0571  0.1647  1.0000  -3.9778   0.0000   0.0000   0.0000   0.2928
   7.800   1.1207   0.01744   0.00958  -0.0566  0.1549  1.0000  -4.0661   0.0000   0.0000   0.0000   0.2918
   7.900   1.1274   0.01773   0.00980  -0.0559  0.1423  1.0000  -4.1487   0.0000   0.0000   0.0000   0.2908
   8.000   1.1340   0.01804   0.01005  -0.0552  0.1288  1.0000  -4.2266   0.0000   0.0000   0.0000   0.2898
   8.100   1.1396   0.01842   0.01032  -0.0544  0.1119  1.0000  -4.2951   0.0000   0.0000   0.0000   0.2888
   8.200   1.1437   0.01892   0.01066  -0.0535  0.0896  1.0000  -4.3508   0.0000   0.0000   0.0000   0.2876
   8.300   1.1452   0.01963   0.01112  -0.0522  0.0611  1.0000  -4.3898   0.0000   0.0000   0.0000   0.2863
   8.400   1.1447   0.02049   0.01174  -0.0505  0.0334  1.0000  -4.4161   0.0000   0.0000   0.0000   0.2848
   8.500   1.1448   0.02129   0.01239  -0.0489  0.0188  1.0000  -4.4457   0.0000   0.0000   0.0000   0.2833
   8.600   1.1479   0.02183   0.01291  -0.0477  0.0152  1.0000  -4.4925   0.0000   0.0000   0.0000   0.2820
   8.700   1.1517   0.02230   0.01340  -0.0466  0.0137  1.0000  -4.5480   0.0000   0.0000   0.0000   0.2807
   8.800   1.1563   0.02268   0.01383  -0.0455  0.0128  1.0000  -4.6097   0.0000   0.0000   0.0000   0.2795
   8.900   1.1603   0.02306   0.01427  -0.0444  0.0122  1.0000  -4.6748   0.0000   0.0000   0.0000   0.2782
   9.000   1.1637   0.02344   0.01470  -0.0431  0.0117  1.0000  -4.7386   0.0000   0.0000   0.0000   0.2769
   9.100   1.1666   0.02384   0.01516  -0.0419  0.0114  1.0000  -4.8012   0.0000   0.0000   0.0000   0.2756
   9.200   1.1690   0.02428   0.01564  -0.0405  0.0111  1.0000  -4.8601   0.0000   0.0000   0.0000   0.2743
   9.300   1.1717   0.02470   0.01612  -0.0392  0.0109  1.0000  -4.9196   0.0000   0.0000   0.0000   0.2730
   9.400   1.1748   0.02509   0.01657  -0.0380  0.0107  1.0000  -4.9819   0.0000   0.0000   0.0000   0.2717
   9.500   1.1776   0.02550   0.01705  -0.0368  0.0105  1.0000  -5.0428   0.0000   0.0000   0.0000   0.2705
   9.600   1.1799   0.02593   0.01754  -0.0355  0.0104  1.0000  -5.1022   0.0000   0.0000   0.0000   0.2692
   9.700   1.1820   0.02637   0.01804  -0.0343  0.0103  1.0000  -5.1608   0.0000   0.0000   0.0000   0.2679
   9.800   1.1839   0.02683   0.01857  -0.0330  0.0101  1.0000  -5.2183   0.0000   0.0000   0.0000   0.2667
   9.900   1.1853   0.02731   0.01911  -0.0317  0.0100  1.0000  -5.2740   0.0000   0.0000   0.0000   0.2655
  10.000   1.1865   0.02781   0.01966  -0.0305  0.0099  1.0000  -5.3283   0.0000   0.0000   0.0000   0.2642
  10.100   1.1874   0.02833   0.02024  -0.0292  0.0099  1.0000  -5.3816   0.0000   0.0000   0.0000   0.2630
  10.200   1.1880   0.02887   0.02084  -0.0280  0.0098  1.0000  -5.4330   0.0000   0.0000   0.0000   0.2618
  10.300   1.1884   0.02943   0.02146  -0.0267  0.0097  1.0000  -5.4830   0.0000   0.0000   0.0000   0.2606
  10.400   1.1885   0.03002   0.02210  -0.0255  0.0097  1.0000  -5.5317   0.0000   0.0000   0.0000   0.2594
  10.500   1.1884   0.03064   0.02277  -0.0243  0.0096  1.0000  -5.5786   0.0000   0.0000   0.0000   0.2583
  10.600   1.1881   0.03128   0.02346  -0.0232  0.0096  1.0000  -5.6245   0.0000   0.0000   0.0000   0.2572
  10.700   1.1876   0.03195   0.02418  -0.0220  0.0095  1.0000  -5.6689   0.0000   0.0000   0.0000   0.2561
  10.800   1.1870   0.03265   0.02493  -0.0210  0.0095  1.0000  -5.7124   0.0000   0.0000   0.0000   0.2550
  10.900   1.1863   0.03337   0.02570  -0.0199  0.0095  1.0000  -5.7546   0.0000   0.0000   0.0000   0.2540
  11.000   1.1855   0.03412   0.02650  -0.0190  0.0094  1.0000  -5.7961   0.0000   0.0000   0.0000   0.2531
  11.100   1.1847   0.03490   0.02734  -0.0180  0.0094  1.0000  -5.8359   0.0000   0.0000   0.0000   0.2521
  11.200   1.1838   0.03571   0.02819  -0.0172  0.0094  1.0000  -5.8757   0.0000   0.0000   0.0000   0.2513
  11.300   1.1830   0.03654   0.02907  -0.0163  0.0094  1.0000  -5.9151   0.0000   0.0000   0.0000   0.2504
  11.400   1.1821   0.03740   0.02997  -0.0156  0.0094  1.0000  -5.9540   0.0000   0.0000   0.0000   0.2496
  11.500   1.1814   0.03828   0.03090  -0.0148  0.0094  1.0000  -5.9928   0.0000   0.0000   0.0000   0.2488
  11.600   1.1807   0.03918   0.03184  -0.0142  0.0093  1.0000  -6.0312   0.0000   0.0000   0.0000   0.2481
  11.700   1.1801   0.04010   0.03281  -0.0136  0.0093  1.0000  -6.0699   0.0000   0.0000   0.0000   0.2474
  11.800   1.1797   0.04105   0.03380  -0.0130  0.0093  1.0000  -6.1082   0.0000   0.0000   0.0000   0.2468
  11.900   1.1795   0.04200   0.03480  -0.0125  0.0093  1.0000  -6.1470   0.0000   0.0000   0.0000   0.2462
  12.000   1.1794   0.04298   0.03581  -0.0120  0.0093  1.0000  -6.1858   0.0000   0.0000   0.0000   0.2456
  12.100   1.1794   0.04396   0.03685  -0.0115  0.0093  1.0000  -6.2247   0.0000   0.0000   0.0000   0.2451
  12.200   1.1798   0.04496   0.03789  -0.0111  0.0093  1.0000  -6.2642   0.0000   0.0000   0.0000   0.2445
  12.300   1.1803   0.04597   0.03894  -0.0107  0.0093  1.0000  -6.3038   0.0000   0.0000   0.0000   0.2440
  12.400   1.1810   0.04699   0.04001  -0.0104  0.0094  1.0000  -6.3434   0.0000   0.0000   0.0000   0.2436
  12.500   1.1819   0.04802   0.04109  -0.0100  0.0094  1.0000  -6.3835   0.0000   0.0000   0.0000   0.2431
  12.600   1.1830   0.04907   0.04218  -0.0097  0.0094  1.0000  -6.4232   0.0000   0.0000   0.0000   0.2427
  12.700   1.1842   0.05014   0.04331  -0.0094  0.0094  1.0000  -6.4606   0.0000   0.0000   0.0000   0.2423
  12.800   1.1853   0.05124   0.04447  -0.0092  0.0095  1.0000  -6.4962   0.0000   0.0000   0.0000   0.2419
  12.900   1.1864   0.05237   0.04567  -0.0089  0.0095  1.0000  -6.5301   0.0000   0.0000   0.0000   0.2415
  13.000   1.1873   0.05353   0.04691  -0.0087  0.0095  1.0000  -6.5616   0.0000   0.0000   0.0000   0.2411
  13.100   1.1881   0.05474   0.04819  -0.0086  0.0096  1.0000  -6.5905   0.0000   0.0000   0.0000   0.2408
  13.200   1.1886   0.05599   0.04952  -0.0084  0.0096  1.0000  -6.6169   0.0000   0.0000   0.0000   0.2405
  13.300   1.1888   0.05730   0.05090  -0.0083  0.0097  1.0000  -6.6400   0.0000   0.0000   0.0000   0.2403
  13.400   1.1885   0.05866   0.05235  -0.0083  0.0097  1.0000  -6.6600   0.0000   0.0000   0.0000   0.2401
  13.500   1.1880   0.06007   0.05384  -0.0083  0.0098  1.0000  -6.6771   0.0000   0.0000   0.0000   0.2399
  13.600   1.1870   0.06154   0.05540  -0.0084  0.0098  1.0000  -6.6909   0.0000   0.0000   0.0000   0.2398
  13.700   1.1855   0.06307   0.05701  -0.0085  0.0099  1.0000  -6.7015   0.0000   0.0000   0.0000   0.2397
  13.800   1.1837   0.06465   0.05870  -0.0087  0.0100  1.0000  -6.7097   0.0000   0.0000   0.0000   0.2397
  13.900   1.1816   0.06630   0.06043  -0.0089  0.0100  1.0000  -6.7152   0.0000   0.0000   0.0000   0.2398
  14.000   1.1792   0.06799   0.06221  -0.0093  0.0101  1.0000  -6.7186   0.0000   0.0000   0.0000   0.2399
  14.100   1.1764   0.06974   0.06405  -0.0097  0.0101  1.0000  -6.7193   0.0000   0.0000   0.0000   0.2401
  14.200   1.1734   0.07155   0.06594  -0.0102  0.0102  1.0000  -6.7179   0.0000   0.0000   0.0000   0.2404
  14.300   1.1700   0.07342   0.06790  -0.0107  0.0102  1.0000  -6.7141   0.0000   0.0000   0.0000   0.2407
  14.400   1.1665   0.07535   0.06990  -0.0113  0.0103  1.0000  -6.7082   0.0000   0.0000   0.0000   0.2411
  14.500   1.1627   0.07733   0.07197  -0.0120  0.0103  1.0000  -6.7005   0.0000   0.0000   0.0000   0.2415
  14.600   1.1587   0.07937   0.07409  -0.0128  0.0104  1.0000  -6.6906   0.0000   0.0000   0.0000   0.2421
  14.700   1.1547   0.08146   0.07625  -0.0137  0.0104  1.0000  -6.6792   0.0000   0.0000   0.0000   0.2427
  14.800   1.1504   0.08360   0.07847  -0.0146  0.0104  1.0000  -6.6658   0.0000   0.0000   0.0000   0.2433
  14.900   1.1461   0.08580   0.08074  -0.0156  0.0105  1.0000  -6.6507   0.0000   0.0000   0.0000   0.2441
  15.000   1.1417   0.08804   0.08306  -0.0167  0.0105  1.0000  -6.6341   0.0000   0.0000   0.0000   0.2449
  15.100   1.1372   0.09033   0.08542  -0.0178  0.0106  1.0000  -6.6158   0.0000   0.0000   0.0000   0.2458
  15.200   1.1327   0.09266   0.08782  -0.0190  0.0106  1.0000  -6.5958   0.0000   0.0000   0.0000   0.2467
  15.300   1.1282   0.09503   0.09026  -0.0203  0.0106  1.0000  -6.5745   0.0000   0.0000   0.0000   0.2478
  15.400   1.1236   0.09744   0.09272  -0.0216  0.0107  1.0000  -6.5519   0.0000   0.0000   0.0000   0.2488
  15.500   1.1191   0.09987   0.09522  -0.0229  0.0107  1.0000  -6.5278   0.0000   0.0000   0.0000   0.2500
  15.600   1.1146   0.10233   0.09774  -0.0243  0.0107  1.0000  -6.5027   0.0000   0.0000   0.0000   0.2511
  15.700   1.1102   0.10480   0.10027  -0.0258  0.0108  1.0000  -6.4769   0.0000   0.0000   0.0000   0.2523
  15.800   1.1059   0.10728   0.10281  -0.0272  0.0108  1.0000  -6.4503   0.0000   0.0000   0.0000   0.2536
  15.900   1.1018   0.10976   0.10533  -0.0287  0.0108  1.0000  -6.4235   0.0000   0.0000   0.0000   0.2548
  16.000   1.0981   0.11220   0.10782  -0.0301  0.0109  1.0000  -6.3979   0.0000   0.0000   0.0000   0.2560
  16.100   1.0948   0.11457   0.11024  -0.0314  0.0109  1.0000  -6.3752   0.0000   0.0000   0.0000   0.2572
  16.200   1.0923   0.11681   0.11252  -0.0326  0.0110  1.0000  -6.3585   0.0000   0.0000   0.0000   0.2582
  16.300   1.0868   0.11960   0.11538  -0.0346  0.0110  1.0000  -6.3121   0.0000   0.0000   0.0000   0.2601
  16.400   1.0808   0.12258   0.11844  -0.0368  0.0110  1.0000  -6.2539   0.0000   0.0000   0.0000   0.2621
  16.500   1.0741   0.12580   0.12174  -0.0391  0.0111  1.0000  -6.1805   0.0000   0.0000   0.0000   0.2644
  16.600   1.0666   0.12930   0.12532  -0.0417  0.0111  1.0000  -6.0886   0.0000   0.0000   0.0000   0.2669
  16.700   1.0582   0.13312   0.12923  -0.0444  0.0112  1.0000  -5.9751   0.0000   0.0000   0.0000   0.2698
  16.800   1.0487   0.13732   0.13352  -0.0475  0.0113  1.0000  -5.8359   0.0000   0.0000   0.0000   0.2730
  16.900   1.0354   0.14267   0.13895  -0.0513  0.0114  1.0000  -5.6271   0.0000   0.0000   0.0000   0.2774
  17.000   1.0193   0.14906   0.14545  -0.0558  0.0115  1.0000  -5.3453   0.0000   0.0000   0.0000   0.2827


