xflr5 v6.59

 Calculated polar for: SF-8

 1 1 Reynolds number fixed          Mach number fixed         

 xtrf =   1.000 (top)        1.000 (bottom)
 Mach =   0.050     Re =     0.200 e 6     Ncrit =   5.000

  alpha     CL        CD       CDp       Cm    Top Xtr Bot Xtr   Cpmin    Chinge    XCp    
 ------- -------- --------- --------- -------- ------- ------- -------- --------- ---------
  -3.000   0.5202   0.01351   0.00490  -0.1938  0.7411  0.0309  -1.1896   0.0000   0.0000   0.0000   0.6266
  -2.900   0.5323   0.01347   0.00484  -0.1940  0.7388  0.0316  -1.1486   0.0000   0.0000   0.0000   0.6182
  -2.800   0.5444   0.01343   0.00477  -0.1942  0.7364  0.0324  -1.1077   0.0000   0.0000   0.0000   0.6102
  -2.700   0.5564   0.01340   0.00470  -0.1944  0.7340  0.0332  -1.0670   0.0000   0.0000   0.0000   0.6026
  -2.600   0.5686   0.01337   0.00463  -0.1946  0.7316  0.0343  -1.0260   0.0000   0.0000   0.0000   0.5952
  -2.500   0.5807   0.01334   0.00456  -0.1948  0.7291  0.0361  -0.9839   0.0000   0.0000   0.0000   0.5882
  -2.400   0.5929   0.01333   0.00450  -0.1949  0.7268  0.0375  -0.9420   0.0000   0.0000   0.0000   0.5813
  -2.300   0.6052   0.01331   0.00442  -0.1952  0.7244  0.0381  -0.9013   0.0000   0.0000   0.0000   0.5748
  -2.200   0.6177   0.01330   0.00433  -0.1954  0.7220  0.0386  -0.8754   0.0000   0.0000   0.0000   0.5684
  -2.100   0.6295   0.01329   0.00429  -0.1955  0.7195  0.0393  -0.8839   0.0000   0.0000   0.0000   0.5625
  -2.000   0.6407   0.01327   0.00426  -0.1955  0.7166  0.0401  -0.8920   0.0000   0.0000   0.0000   0.5569
  -1.900   0.6520   0.01325   0.00424  -0.1956  0.7133  0.0410  -0.9003   0.0000   0.0000   0.0000   0.5514
  -1.800   0.6633   0.01324   0.00421  -0.1956  0.7098  0.0421  -0.9086   0.0000   0.0000   0.0000   0.5462
  -1.700   0.6748   0.01322   0.00418  -0.1956  0.7061  0.0436  -0.9170   0.0000   0.0000   0.0000   0.5410
  -1.600   0.6863   0.01320   0.00414  -0.1957  0.7023  0.0454  -0.9255   0.0000   0.0000   0.0000   0.5361
  -1.500   0.6980   0.01319   0.00410  -0.1958  0.6984  0.0468  -0.9341   0.0000   0.0000   0.0000   0.5312
  -1.400   0.7098   0.01318   0.00405  -0.1959  0.6946  0.0482  -0.9436   0.0000   0.0000   0.0000   0.5265
  -1.300   0.7217   0.01318   0.00401  -0.1960  0.6908  0.0496  -0.9538   0.0000   0.0000   0.0000   0.5219
  -1.200   0.7328   0.01317   0.00402  -0.1960  0.6869  0.0510  -0.9636   0.0000   0.0000   0.0000   0.5176
  -1.100   0.7439   0.01316   0.00401  -0.1960  0.6827  0.0632  -0.9733   0.0000   0.0000   0.0000   0.5134
  -1.000   0.7549   0.01317   0.00400  -0.1959  0.6783  0.0651  -0.9831   0.0000   0.0000   0.0000   0.5093
  -0.900   0.7660   0.01318   0.00398  -0.1958  0.6737  0.0664  -0.9929   0.0000   0.0000   0.0000   0.5053
  -0.800   0.7772   0.01320   0.00395  -0.1958  0.6691  0.0687  -1.0029   0.0000   0.0000   0.0000   0.5014
  -0.700   0.7889   0.01319   0.00392  -0.1959  0.6646  0.0754  -1.0132   0.0000   0.0000   0.0000   0.4976
  -0.600   0.8009   0.01317   0.00390  -0.1961  0.6602  0.0829  -1.0236   0.0000   0.0000   0.0000   0.4940
  -0.500   0.8120   0.01315   0.00392  -0.1961  0.6558  0.1050  -1.0335   0.0000   0.0000   0.0000   0.4905
  -0.400   0.8252   0.01300   0.00393  -0.1968  0.6506  0.1550  -1.0444   0.0000   0.0000   0.0000   0.4873
  -0.300   0.8399   0.01276   0.00394  -0.1979  0.6448  0.2474  -1.0564   0.0000   0.0000   0.0000   0.4843
  -0.200   0.8537   0.01259   0.00399  -0.1987  0.6390  0.3196  -1.0679   0.0000   0.0000   0.0000   0.4813
  -0.100   0.8663   0.01252   0.00405  -0.1991  0.6335  0.3770  -1.0789   0.0000   0.0000   0.0000   0.4782
   0.000   0.8781   0.01250   0.00414  -0.1993  0.6286  0.4173  -1.0894   0.0000   0.0000   0.0000   0.4752
   0.100   0.8896   0.01250   0.00426  -0.1994  0.6238  0.4563  -1.0996   0.0000   0.0000   0.0000   0.4722
   0.200   0.9007   0.01253   0.00438  -0.1994  0.6189  0.4898  -1.1096   0.0000   0.0000   0.0000   0.4693
   0.300   0.9114   0.01259   0.00450  -0.1992  0.6138  0.5153  -1.1195   0.0000   0.0000   0.0000   0.4663
   0.400   0.9219   0.01267   0.00459  -0.1990  0.6087  0.5360  -1.1293   0.0000   0.0000   0.0000   0.4635
   0.500   0.9320   0.01275   0.00470  -0.1987  0.6038  0.5528  -1.1388   0.0000   0.0000   0.0000   0.4607
   0.600   0.9426   0.01286   0.00476  -0.1985  0.5993  0.5657  -1.1486   0.0000   0.0000   0.0000   0.4579
   0.700   0.9528   0.01291   0.00486  -0.1982  0.5955  0.5735  -1.1581   0.0000   0.0000   0.0000   0.4552
   0.800   0.9634   0.01295   0.00493  -0.1981  0.5916  0.5784  -1.1693   0.0000   0.0000   0.0000   0.4527
   0.900   0.9742   0.01300   0.00500  -0.1980  0.5874  0.5827  -1.1809   0.0000   0.0000   0.0000   0.4501
   1.000   0.9850   0.01305   0.00505  -0.1979  0.5831  0.5865  -1.1926   0.0000   0.0000   0.0000   0.4477
   1.100   0.9958   0.01311   0.00512  -0.1979  0.5788  0.5899  -1.2043   0.0000   0.0000   0.0000   0.4453
   1.200   1.0066   0.01317   0.00515  -0.1978  0.5743  0.5931  -1.2160   0.0000   0.0000   0.0000   0.4429
   1.300   1.0173   0.01324   0.00519  -0.1977  0.5699  0.5959  -1.2277   0.0000   0.0000   0.0000   0.4406
   1.400   1.0278   0.01331   0.00522  -0.1975  0.5658  0.5984  -1.2392   0.0000   0.0000   0.0000   0.4383
   1.500   1.0384   0.01335   0.00528  -0.1974  0.5621  0.6007  -1.2515   0.0000   0.0000   0.0000   0.4361
   1.600   1.0491   0.01340   0.00534  -0.1973  0.5583  0.6032  -1.2654   0.0000   0.0000   0.0000   0.4339
   1.700   1.0596   0.01346   0.00540  -0.1971  0.5544  0.6059  -1.2793   0.0000   0.0000   0.0000   0.4318
   1.800   1.0700   0.01352   0.00546  -0.1970  0.5504  0.6088  -1.2932   0.0000   0.0000   0.0000   0.4297
   1.900   1.0804   0.01359   0.00552  -0.1968  0.5464  0.6119  -1.3070   0.0000   0.0000   0.0000   0.4276
   2.000   1.0908   0.01367   0.00557  -0.1967  0.5424  0.6151  -1.3208   0.0000   0.0000   0.0000   0.4256
   2.100   1.1009   0.01376   0.00563  -0.1964  0.5379  0.6184  -1.3346   0.0000   0.0000   0.0000   0.4236
   2.200   1.1108   0.01387   0.00569  -0.1962  0.5331  0.6217  -1.3481   0.0000   0.0000   0.0000   0.4216
   2.300   1.1214   0.01394   0.00576  -0.1961  0.5282  0.6249  -1.3623   0.0000   0.0000   0.0000   0.4197
   2.400   1.1320   0.01401   0.00583  -0.1960  0.5216  0.6279  -1.3763   0.0000   0.0000   0.0000   0.4179
   2.500   1.1419   0.01410   0.00594  -0.1958  0.5138  0.6305  -1.3900   0.0000   0.0000   0.0000   0.4160
   2.600   1.1511   0.01420   0.00602  -0.1954  0.5052  0.6330  -1.4031   0.0000   0.0000   0.0000   0.4142
   2.700   1.1602   0.01432   0.00610  -0.1950  0.4974  0.6354  -1.4172   0.0000   0.0000   0.0000   0.4123
   2.800   1.1696   0.01442   0.00618  -0.1946  0.4899  0.6379  -1.4334   0.0000   0.0000   0.0000   0.4106
   2.900   1.1788   0.01455   0.00627  -0.1943  0.4823  0.6405  -1.4495   0.0000   0.0000   0.0000   0.4088
   3.000   1.1876   0.01469   0.00636  -0.1938  0.4750  0.6432  -1.4652   0.0000   0.0000   0.0000   0.4071
   3.100   1.1962   0.01485   0.00646  -0.1934  0.4684  0.6460  -1.4808   0.0000   0.0000   0.0000   0.4054
   3.200   1.2062   0.01494   0.00655  -0.1932  0.4629  0.6489  -1.4977   0.0000   0.0000   0.0000   0.4037
   3.300   1.2164   0.01503   0.00664  -0.1930  0.4566  0.6519  -1.5146   0.0000   0.0000   0.0000   0.4021
   3.400   1.2263   0.01513   0.00674  -0.1928  0.4500  0.6549  -1.5341   0.0000   0.0000   0.0000   0.4005
   3.500   1.2358   0.01525   0.00684  -0.1925  0.4428  0.6578  -1.5543   0.0000   0.0000   0.0000   0.3989
   3.600   1.2448   0.01541   0.00694  -0.1921  0.4357  0.6605  -1.5741   0.0000   0.0000   0.0000   0.3973
   3.700   1.2539   0.01553   0.00706  -0.1918  0.4299  0.6632  -1.5940   0.0000   0.0000   0.0000   0.3958
   3.800   1.2629   0.01567   0.00717  -0.1914  0.4240  0.6660  -1.6138   0.0000   0.0000   0.0000   0.3942
   3.900   1.2716   0.01581   0.00730  -0.1910  0.4179  0.6690  -1.6387   0.0000   0.0000   0.0000   0.3927
   4.000   1.2800   0.01598   0.00744  -0.1905  0.4117  0.6723  -1.6677   0.0000   0.0000   0.0000   0.3912
   4.100   1.2880   0.01617   0.00758  -0.1899  0.4057  0.6758  -1.6963   0.0000   0.0000   0.0000   0.3897
   4.200   1.2968   0.01632   0.00778  -0.1895  0.4005  0.6796  -1.7262   0.0000   0.0000   0.0000   0.3882
   4.300   1.3066   0.01642   0.00789  -0.1893  0.3945  0.6836  -1.7578   0.0000   0.0000   0.0000   0.3868
   4.400   1.3158   0.01656   0.00802  -0.1890  0.3862  0.6875  -1.7886   0.0000   0.0000   0.0000   0.3854
   4.500   1.3239   0.01675   0.00818  -0.1885  0.3759  0.6913  -1.8179   0.0000   0.0000   0.0000   0.3840
   4.600   1.3310   0.01697   0.00836  -0.1878  0.3671  0.6948  -1.8457   0.0000   0.0000   0.0000   0.3826
   4.700   1.3384   0.01716   0.00853  -0.1871  0.3596  0.6986  -1.8743   0.0000   0.0000   0.0000   0.3812
   4.800   1.3457   0.01738   0.00871  -0.1865  0.3521  0.7028  -1.9026   0.0000   0.0000   0.0000   0.3798
   4.900   1.3524   0.01761   0.00891  -0.1857  0.3451  0.7071  -1.9304   0.0000   0.0000   0.0000   0.3784
   5.000   1.3592   0.01785   0.00911  -0.1850  0.3389  0.7115  -1.9581   0.0000   0.0000   0.0000   0.3770
   5.100   1.3685   0.01797   0.00924  -0.1847  0.3335  0.7160  -1.9900   0.0000   0.0000   0.0000   0.3757
   5.200   1.3773   0.01812   0.00940  -0.1843  0.3255  0.7203  -2.0212   0.0000   0.0000   0.0000   0.3744
   5.300   1.3846   0.01832   0.00959  -0.1837  0.3146  0.7242  -2.0502   0.0000   0.0000   0.0000   0.3731
   5.400   1.3907   0.01857   0.00981  -0.1829  0.3054  0.7282  -2.0773   0.0000   0.0000   0.0000   0.3717
   5.500   1.3969   0.01881   0.01002  -0.1820  0.2988  0.7326  -2.1047   0.0000   0.0000   0.0000   0.3704
   5.600   1.4028   0.01905   0.01024  -0.1812  0.2927  0.7371  -2.1317   0.0000   0.0000   0.0000   0.3691
   5.700   1.4084   0.01931   0.01046  -0.1802  0.2869  0.7418  -2.1581   0.0000   0.0000   0.0000   0.3678
   5.800   1.4137   0.01957   0.01069  -0.1793  0.2814  0.7466  -2.1844   0.0000   0.0000   0.0000   0.3665
   5.900   1.4206   0.01977   0.01089  -0.1786  0.2770  0.7513  -2.2131   0.0000   0.0000   0.0000   0.3652
   6.000   1.4281   0.01991   0.01107  -0.1780  0.2721  0.7561  -2.2431   0.0000   0.0000   0.0000   0.3639
   6.100   1.4352   0.02009   0.01127  -0.1773  0.2648  0.7615  -2.2723   0.0000   0.0000   0.0000   0.3627
   6.200   1.4408   0.02034   0.01151  -0.1764  0.2538  0.7672  -2.2994   0.0000   0.0000   0.0000   0.3614
   6.300   1.4450   0.02068   0.01181  -0.1753  0.2457  0.7731  -2.3240   0.0000   0.0000   0.0000   0.3602
   6.500   1.4545   0.02128   0.01237  -0.1733  0.2353  0.7852  -2.3753   0.0000   0.0000   0.0000   0.3577
   6.600   1.4590   0.02158   0.01266  -0.1722  0.2304  0.7923  -2.4005   0.0000   0.0000   0.0000   0.3564
   6.700   1.4635   0.02190   0.01303  -0.1712  0.2258  0.7998  -2.4258   0.0000   0.0000   0.0000   0.3552
   6.800   1.4684   0.02219   0.01331  -0.1703  0.2218  0.8076  -2.4518   0.0000   0.0000   0.0000   0.3540
   6.900   1.4750   0.02235   0.01353  -0.1695  0.2188  0.8167  -2.4808   0.0000   0.0000   0.0000   0.3528
   7.000   1.4813   0.02254   0.01376  -0.1688  0.2146  0.8273  -2.5095   0.0000   0.0000   0.0000   0.3516
   7.100   1.4866   0.02275   0.01400  -0.1678  0.2085  0.8392  -2.5364   0.0000   0.0000   0.0000   0.3504
   7.300   1.4917   0.02334   0.01462  -0.1650  0.1928  0.8756  -2.5807   0.0000   0.0000   0.0000   0.3479
   7.400   1.4878   0.02346   0.01480  -0.1624  0.1902  0.9973  -2.5920   0.0000   0.0000   0.0000   0.3462
   7.500   1.4928   0.02389   0.01520  -0.1616  0.1860  1.0000  -2.6183   0.0000   0.0000   0.0000   0.3452
   7.600   1.4972   0.02432   0.01560  -0.1608  0.1819  1.0000  -2.6436   0.0000   0.0000   0.0000   0.3441
   7.700   1.5015   0.02476   0.01601  -0.1600  0.1780  1.0000  -2.6688   0.0000   0.0000   0.0000   0.3431
   7.800   1.5060   0.02520   0.01643  -0.1592  0.1742  1.0000  -2.6942   0.0000   0.0000   0.0000   0.3421
   7.900   1.5107   0.02562   0.01684  -0.1584  0.1707  1.0000  -2.7201   0.0000   0.0000   0.0000   0.3411
   8.000   1.5174   0.02592   0.01716  -0.1579  0.1683  1.0000  -2.7496   0.0000   0.0000   0.0000   0.3401
   8.100   1.5237   0.02624   0.01751  -0.1574  0.1634  1.0000  -2.7786   0.0000   0.0000   0.0000   0.3392
   8.200   1.5282   0.02670   0.01795  -0.1566  0.1515  1.0000  -2.8043   0.0000   0.0000   0.0000   0.3382
   8.300   1.5284   0.02744   0.01862  -0.1554  0.1414  1.0000  -2.8223   0.0000   0.0000   0.0000   0.3372
   8.400   1.5287   0.02820   0.01930  -0.1543  0.1349  1.0000  -2.8402   0.0000   0.0000   0.0000   0.3362
   8.500   1.5290   0.02898   0.02001  -0.1531  0.1281  1.0000  -2.8580   0.0000   0.0000   0.0000   0.3353
   8.600   1.5320   0.02957   0.02057  -0.1523  0.1221  1.0000  -2.8809   0.0000   0.0000   0.0000   0.3344
   8.700   1.5362   0.03006   0.02108  -0.1516  0.1126  1.0000  -2.9062   0.0000   0.0000   0.0000   0.3335
   8.800   1.5363   0.03088   0.02183  -0.1505  0.1005  1.0000  -2.9240   0.0000   0.0000   0.0000   0.3326
   8.900   1.5354   0.03179   0.02266  -0.1494  0.0954  1.0000  -2.9399   0.0000   0.0000   0.0000   0.3317
   9.000   1.5349   0.03270   0.02350  -0.1483  0.0901  1.0000  -2.9562   0.0000   0.0000   0.0000   0.3309
   9.100   1.5358   0.03351   0.02427  -0.1474  0.0848  1.0000  -2.9751   0.0000   0.0000   0.0000   0.3301
   9.200   1.5405   0.03402   0.02481  -0.1469  0.0811  1.0000  -3.0018   0.0000   0.0000   0.0000   0.3292
   9.300   1.5443   0.03460   0.02540  -0.1463  0.0742  1.0000  -3.0271   0.0000   0.0000   0.0000   0.3284
   9.400   1.5453   0.03542   0.02620  -0.1455  0.0658  1.0000  -3.0477   0.0000   0.0000   0.0000   0.3276
   9.500   1.5455   0.03633   0.02707  -0.1446  0.0632  1.0000  -3.0670   0.0000   0.0000   0.0000   0.3269
   9.600   1.5458   0.03725   0.02794  -0.1438  0.0608  1.0000  -3.0861   0.0000   0.0000   0.0000   0.3261
   9.700   1.5466   0.03813   0.02879  -0.1430  0.0586  1.0000  -3.1059   0.0000   0.0000   0.0000   0.3254
   9.800   1.5530   0.03852   0.02932  -0.1427  0.0598  1.0000  -3.1349   0.0000   0.0000   0.0000   0.3246
   9.900   1.5554   0.03927   0.03007  -0.1421  0.0585  1.0000  -3.1572   0.0000   0.0000   0.0000   0.3239
  10.000   1.5575   0.04005   0.03086  -0.1414  0.0569  1.0000  -3.1789   0.0000   0.0000   0.0000   0.3232
  10.100   1.5600   0.04081   0.03163  -0.1409  0.0555  1.0000  -3.2010   0.0000   0.0000   0.0000   0.3225
  10.200   1.5630   0.04152   0.03236  -0.1403  0.0546  1.0000  -3.2239   0.0000   0.0000   0.0000   0.3217
  10.300   1.5662   0.04221   0.03308  -0.1398  0.0538  1.0000  -3.2508   0.0000   0.0000   0.0000   0.3210
  10.400   1.5695   0.04290   0.03380  -0.1393  0.0529  1.0000  -3.2791   0.0000   0.0000   0.0000   0.3203
  10.500   1.5726   0.04361   0.03454  -0.1388  0.0522  1.0000  -3.3071   0.0000   0.0000   0.0000   0.3196
  10.600   1.5757   0.04432   0.03526  -0.1383  0.0516  1.0000  -3.3352   0.0000   0.0000   0.0000   0.3190
  10.700   1.5791   0.04500   0.03598  -0.1379  0.0512  1.0000  -3.3648   0.0000   0.0000   0.0000   0.3183
  10.800   1.5825   0.04568   0.03671  -0.1374  0.0508  1.0000  -3.3944   0.0000   0.0000   0.0000   0.3176
  10.900   1.5858   0.04638   0.03745  -0.1370  0.0503  1.0000  -3.4241   0.0000   0.0000   0.0000   0.3169
  11.000   1.5891   0.04708   0.03819  -0.1365  0.0498  1.0000  -3.4536   0.0000   0.0000   0.0000   0.3163
  11.100   1.5922   0.04782   0.03898  -0.1361  0.0492  1.0000  -3.4826   0.0000   0.0000   0.0000   0.3156
  11.200   1.5949   0.04861   0.03980  -0.1357  0.0486  1.0000  -3.5108   0.0000   0.0000   0.0000   0.3150
  11.300   1.5977   0.04940   0.04064  -0.1353  0.0479  1.0000  -3.5422   0.0000   0.0000   0.0000   0.3144
  11.400   1.6004   0.05020   0.04148  -0.1349  0.0471  1.0000  -3.5737   0.0000   0.0000   0.0000   0.3138
  11.500   1.6030   0.05103   0.04234  -0.1345  0.0463  1.0000  -3.6050   0.0000   0.0000   0.0000   0.3132
  11.600   1.6054   0.05187   0.04321  -0.1341  0.0454  1.0000  -3.6359   0.0000   0.0000   0.0000   0.3126
  11.700   1.6077   0.05274   0.04411  -0.1337  0.0445  1.0000  -3.6662   0.0000   0.0000   0.0000   0.3121
  11.800   1.6094   0.05368   0.04508  -0.1333  0.0435  1.0000  -3.6949   0.0000   0.0000   0.0000   0.3115
  11.900   1.6109   0.05465   0.04609  -0.1329  0.0425  1.0000  -3.7230   0.0000   0.0000   0.0000   0.3110
  12.000   1.6122   0.05565   0.04711  -0.1326  0.0415  1.0000  -3.7506   0.0000   0.0000   0.0000   0.3105
  12.100   1.6133   0.05669   0.04816  -0.1322  0.0405  1.0000  -3.7775   0.0000   0.0000   0.0000   0.3100
  12.200   1.6142   0.05776   0.04925  -0.1319  0.0394  1.0000  -3.8036   0.0000   0.0000   0.0000   0.3095
  12.300   1.6146   0.05889   0.05040  -0.1315  0.0385  1.0000  -3.8282   0.0000   0.0000   0.0000   0.3091
  12.400   1.6167   0.05984   0.05139  -0.1313  0.0378  1.0000  -3.8574   0.0000   0.0000   0.0000   0.3086
  12.500   1.6194   0.06072   0.05230  -0.1310  0.0370  1.0000  -3.8882   0.0000   0.0000   0.0000   0.3081
  12.600   1.6220   0.06161   0.05323  -0.1308  0.0361  1.0000  -3.9187   0.0000   0.0000   0.0000   0.3076
  12.700   1.6246   0.06251   0.05420  -0.1305  0.0345  1.0000  -3.9561   0.0000   0.0000   0.0000   0.3071
  12.800   1.6268   0.06345   0.05517  -0.1303  0.0323  1.0000  -4.0133   0.0000   0.0000   0.0000   0.3066
  12.900   1.6263   0.06471   0.05642  -0.1300  0.0260  1.0000  -4.0581   0.0000   0.0000   0.0000   0.3063
  13.000   1.6170   0.06708   0.05868  -0.1297  0.0200  1.0000  -4.0591   0.0000   0.0000   0.0000   0.3063
  13.100   1.6101   0.06919   0.06073  -0.1294  0.0093  1.0000  -4.0701   0.0000   0.0000   0.0000   0.3063
  13.200   1.6017   0.07154   0.06305  -0.1292  0.0075  1.0000  -4.0710   0.0000   0.0000   0.0000   0.3063
  13.300   1.5988   0.07319   0.06474  -0.1290  0.0045  1.0000  -4.1019   0.0000   0.0000   0.0000   0.3061
  13.400   1.5989   0.07449   0.06609  -0.1290  0.0044  1.0000  -4.1479   0.0000   0.0000   0.0000   0.3059
  13.500   1.5988   0.07579   0.06743  -0.1289  0.0043  1.0000  -4.1937   0.0000   0.0000   0.0000   0.3056
  13.600   1.5987   0.07708   0.06877  -0.1288  0.0041  1.0000  -4.2392   0.0000   0.0000   0.0000   0.3053
  13.700   1.5987   0.07837   0.07011  -0.1287  0.0040  1.0000  -4.2854   0.0000   0.0000   0.0000   0.3050
  13.800   1.5990   0.07964   0.07142  -0.1286  0.0039  1.0000  -4.3324   0.0000   0.0000   0.0000   0.3047
  13.900   1.5990   0.08096   0.07279  -0.1286  0.0038  1.0000  -4.3778   0.0000   0.0000   0.0000   0.3045
  14.000   1.5986   0.08236   0.07424  -0.1286  0.0037  1.0000  -4.4210   0.0000   0.0000   0.0000   0.3043
  14.100   1.5984   0.08374   0.07567  -0.1286  0.0036  1.0000  -4.4653   0.0000   0.0000   0.0000   0.3041
  14.200   1.5983   0.08510   0.07709  -0.1286  0.0036  1.0000  -4.5103   0.0000   0.0000   0.0000   0.3038
  14.300   1.5984   0.08646   0.07850  -0.1286  0.0035  1.0000  -4.5557   0.0000   0.0000   0.0000   0.3036
  14.400   1.5984   0.08782   0.07991  -0.1287  0.0034  1.0000  -4.6012   0.0000   0.0000   0.0000   0.3034
  14.500   1.5981   0.08926   0.08141  -0.1288  0.0034  1.0000  -4.6442   0.0000   0.0000   0.0000   0.3033
  14.600   1.5975   0.09075   0.08295  -0.1289  0.0033  1.0000  -4.6862   0.0000   0.0000   0.0000   0.3032
  14.700   1.5972   0.09221   0.08446  -0.1291  0.0033  1.0000  -4.7291   0.0000   0.0000   0.0000   0.3030
  14.800   1.5969   0.09365   0.08595  -0.1292  0.0032  1.0000  -4.7729   0.0000   0.0000   0.0000   0.3029
  14.900   1.5968   0.09507   0.08743  -0.1294  0.0032  1.0000  -4.8171   0.0000   0.0000   0.0000   0.3028
  15.000   1.5967   0.09650   0.08891  -0.1295  0.0031  1.0000  -4.8617   0.0000   0.0000   0.0000   0.3026
  15.100   1.5965   0.09796   0.09042  -0.1297  0.0031  1.0000  -4.9053   0.0000   0.0000   0.0000   0.3025
  15.200   1.5957   0.09953   0.09205  -0.1300  0.0030  1.0000  -4.9451   0.0000   0.0000   0.0000   0.3025
  15.300   1.5949   0.10110   0.09368  -0.1303  0.0030  1.0000  -4.9848   0.0000   0.0000   0.0000   0.3025
  15.400   1.5942   0.10263   0.09527  -0.1305  0.0030  1.0000  -5.0257   0.0000   0.0000   0.0000   0.3024
  15.500   1.5938   0.10414   0.09683  -0.1308  0.0030  1.0000  -5.0679   0.0000   0.0000   0.0000   0.3024
  15.600   1.5935   0.10564   0.09839  -0.1311  0.0029  1.0000  -5.1100   0.0000   0.0000   0.0000   0.3023
  15.700   1.5928   0.10719   0.10000  -0.1314  0.0029  1.0000  -5.1507   0.0000   0.0000   0.0000   0.3023
  15.800   1.5917   0.10885   0.10171  -0.1318  0.0029  1.0000  -5.1876   0.0000   0.0000   0.0000   0.3024
  15.900   1.5906   0.11048   0.10340  -0.1322  0.0029  1.0000  -5.2251   0.0000   0.0000   0.0000   0.3025
  16.000   1.5899   0.11206   0.10504  -0.1326  0.0028  1.0000  -5.2646   0.0000   0.0000   0.0000   0.3025
  16.100   1.5893   0.11362   0.10666  -0.1330  0.0028  1.0000  -5.3049   0.0000   0.0000   0.0000   0.3026
  16.200   1.5887   0.11516   0.10826  -0.1334  0.0028  1.0000  -5.3452   0.0000   0.0000   0.0000   0.3026
  16.300   1.5881   0.11672   0.10987  -0.1338  0.0028  1.0000  -5.3850   0.0000   0.0000   0.0000   0.3027
  16.400   1.5870   0.11835   0.11157  -0.1343  0.0027  1.0000  -5.4219   0.0000   0.0000   0.0000   0.3028
  16.500   1.5857   0.12007   0.11334  -0.1349  0.0027  1.0000  -5.4564   0.0000   0.0000   0.0000   0.3030
  16.600   1.5845   0.12175   0.11509  -0.1354  0.0027  1.0000  -5.4919   0.0000   0.0000   0.0000   0.3031
  16.700   1.5835   0.12340   0.11679  -0.1360  0.0027  1.0000  -5.5283   0.0000   0.0000   0.0000   0.3033
  16.800   1.5826   0.12503   0.11848  -0.1365  0.0027  1.0000  -5.5651   0.0000   0.0000   0.0000   0.3034
  16.900   1.5816   0.12665   0.12016  -0.1371  0.0027  1.0000  -5.6015   0.0000   0.0000   0.0000   0.3036
  17.000   1.5801   0.12840   0.12197  -0.1377  0.0027  1.0000  -5.6336   0.0000   0.0000   0.0000   0.3038


