xflr5 v6.59

 Calculated polar for: SF-9

 1 1 Reynolds number fixed          Mach number fixed         

 xtrf =   1.000 (top)        1.000 (bottom)
 Mach =   0.050     Re =     0.200 e 6     Ncrit =   5.000

  alpha     CL        CD       CDp       Cm    Top Xtr Bot Xtr   Cpmin    Chinge    XCp    
 ------- -------- --------- --------- -------- ------- ------- -------- --------- ---------
  -3.000   0.0051   0.01169   0.00363  -0.0689  0.7403  0.1211  -1.5986   0.0000   0.0000   0.0000  14.0389
  -2.900   0.0156   0.01157   0.00353  -0.0688  0.7334  0.1356  -1.5361   0.0000   0.0000   0.0000   4.7213
  -2.800   0.0260   0.01146   0.00343  -0.0686  0.7267  0.1516  -1.4743   0.0000   0.0000   0.0000   2.9198
  -2.700   0.0364   0.01135   0.00335  -0.0684  0.7206  0.1701  -1.4129   0.0000   0.0000   0.0000   2.1520
  -2.600   0.0469   0.01123   0.00328  -0.0683  0.7144  0.1905  -1.3516   0.0000   0.0000   0.0000   1.7209
  -2.500   0.0575   0.01113   0.00321  -0.0682  0.7079  0.2115  -1.2910   0.0000   0.0000   0.0000   1.4487
  -2.400   0.0679   0.01104   0.00316  -0.0680  0.7018  0.2328  -1.2310   0.0000   0.0000   0.0000   1.2613
  -2.300   0.0784   0.01097   0.00310  -0.0678  0.6963  0.2539  -1.1715   0.0000   0.0000   0.0000   1.1238
  -2.200   0.0890   0.01089   0.00306  -0.0677  0.6903  0.2742  -1.1142   0.0000   0.0000   0.0000   1.0176
  -2.100   0.0996   0.01083   0.00303  -0.0676  0.6842  0.2936  -1.0626   0.0000   0.0000   0.0000   0.9339
  -2.000   0.1101   0.01079   0.00300  -0.0674  0.6786  0.3117  -1.0117   0.0000   0.0000   0.0000   0.8666
  -1.900   0.1207   0.01076   0.00297  -0.0672  0.6734  0.3290  -0.9612   0.0000   0.0000   0.0000   0.8108
  -1.800   0.1315   0.01072   0.00294  -0.0671  0.6678  0.3450  -0.9108   0.0000   0.0000   0.0000   0.7636
  -1.700   0.1422   0.01069   0.00292  -0.0670  0.6622  0.3600  -0.8611   0.0000   0.0000   0.0000   0.7236
  -1.600   0.1528   0.01068   0.00290  -0.0668  0.6569  0.3739  -0.8143   0.0000   0.0000   0.0000   0.6893
  -1.500   0.1634   0.01067   0.00286  -0.0666  0.6520  0.3872  -0.7723   0.0000   0.0000   0.0000   0.6594
  -1.400   0.1742   0.01064   0.00285  -0.0665  0.6468  0.3999  -0.7304   0.0000   0.0000   0.0000   0.6331
  -1.300   0.1850   0.01062   0.00284  -0.0663  0.6416  0.4120  -0.6891   0.0000   0.0000   0.0000   0.6098
  -1.200   0.1956   0.01061   0.00282  -0.0662  0.6365  0.4236  -0.6484   0.0000   0.0000   0.0000   0.5892
  -1.100   0.2063   0.01061   0.00280  -0.0660  0.6319  0.4350  -0.6082   0.0000   0.0000   0.0000   0.5706
  -1.000   0.2171   0.01060   0.00278  -0.0658  0.6273  0.4464  -0.5792   0.0000   0.0000   0.0000   0.5539
  -0.900   0.2278   0.01058   0.00277  -0.0657  0.6224  0.4576  -0.5876   0.0000   0.0000   0.0000   0.5387
  -0.800   0.2385   0.01056   0.00276  -0.0656  0.6176  0.4685  -0.5960   0.0000   0.0000   0.0000   0.5250
  -0.700   0.2492   0.01056   0.00274  -0.0654  0.6130  0.4796  -0.6045   0.0000   0.0000   0.0000   0.5124
  -0.500   0.2705   0.01053   0.00272  -0.0651  0.6043  0.5019  -0.6214   0.0000   0.0000   0.0000   0.4902
  -0.400   0.2813   0.01051   0.00272  -0.0649  0.5998  0.5128  -0.6298   0.0000   0.0000   0.0000   0.4803
  -0.300   0.2919   0.01050   0.00271  -0.0648  0.5954  0.5239  -0.6383   0.0000   0.0000   0.0000   0.4712
  -0.200   0.3025   0.01050   0.00270  -0.0646  0.5914  0.5350  -0.6468   0.0000   0.0000   0.0000   0.4627
  -0.100   0.3131   0.01049   0.00269  -0.0644  0.5876  0.5460  -0.6552   0.0000   0.0000   0.0000   0.4548
   0.000   0.3238   0.01046   0.00269  -0.0643  0.5834  0.5578  -0.6641   0.0000   0.0000   0.0000   0.4475
   0.200   0.3449   0.01041   0.00268  -0.0639  0.5749  0.5836  -0.6817   0.0000   0.0000   0.0000   0.4341
   0.300   0.3553   0.01038   0.00267  -0.0637  0.5711  0.5981  -0.6904   0.0000   0.0000   0.0000   0.4279
   0.500   0.3759   0.01028   0.00268  -0.0632  0.5638  0.6347  -0.7078   0.0000   0.0000   0.0000   0.4166
   0.600   0.3858   0.01019   0.00268  -0.0629  0.5600  0.6611  -0.7163   0.0000   0.0000   0.0000   0.4113
   0.700   0.3952   0.01004   0.00269  -0.0624  0.5563  0.7043  -0.7246   0.0000   0.0000   0.0000   0.4061
   1.000   0.4527   0.00968   0.00269  -0.0669  0.5442  1.0000  -0.7661   0.0000   0.0000   0.0000   0.3957
   1.100   0.4634   0.00973   0.00271  -0.0667  0.5405  1.0000  -0.7752   0.0000   0.0000   0.0000   0.3919
   1.200   0.4740   0.00978   0.00273  -0.0666  0.5368  1.0000  -0.7845   0.0000   0.0000   0.0000   0.3883
   1.300   0.4846   0.00984   0.00274  -0.0664  0.5334  1.0000  -0.7938   0.0000   0.0000   0.0000   0.3848
   1.400   0.4951   0.00990   0.00276  -0.0663  0.5302  1.0000  -0.8031   0.0000   0.0000   0.0000   0.3815
   1.500   0.5057   0.00996   0.00278  -0.0661  0.5273  1.0000  -0.8124   0.0000   0.0000   0.0000   0.3783
   1.600   0.5164   0.01001   0.00281  -0.0660  0.5240  1.0000  -0.8218   0.0000   0.0000   0.0000   0.3753
   1.700   0.5271   0.01006   0.00285  -0.0658  0.5206  1.0000  -0.8312   0.0000   0.0000   0.0000   0.3724
   1.800   0.5377   0.01011   0.00288  -0.0657  0.5172  1.0000  -0.8406   0.0000   0.0000   0.0000   0.3695
   1.900   0.5483   0.01018   0.00291  -0.0655  0.5140  1.0000  -0.8499   0.0000   0.0000   0.0000   0.3668
   2.000   0.5588   0.01024   0.00293  -0.0654  0.5111  1.0000  -0.8593   0.0000   0.0000   0.0000   0.3642
   2.100   0.5694   0.01031   0.00297  -0.0652  0.5082  1.0000  -0.8691   0.0000   0.0000   0.0000   0.3617
   2.200   0.5802   0.01036   0.00302  -0.0651  0.5051  1.0000  -0.8789   0.0000   0.0000   0.0000   0.3593
   2.300   0.5908   0.01042   0.00307  -0.0650  0.5019  1.0000  -0.8887   0.0000   0.0000   0.0000   0.3569
   2.400   0.6015   0.01048   0.00311  -0.0649  0.4989  1.0000  -0.8986   0.0000   0.0000   0.0000   0.3547
   2.500   0.6121   0.01054   0.00318  -0.0647  0.4961  1.0000  -0.9084   0.0000   0.0000   0.0000   0.3525
   2.600   0.6226   0.01061   0.00322  -0.0646  0.4933  1.0000  -0.9183   0.0000   0.0000   0.0000   0.3504
   2.700   0.6331   0.01069   0.00327  -0.0644  0.4909  1.0000  -0.9281   0.0000   0.0000   0.0000   0.3483
   2.800   0.6439   0.01075   0.00333  -0.0643  0.4880  1.0000  -0.9529   0.0000   0.0000   0.0000   0.3463
   2.900   0.6546   0.01081   0.00339  -0.0642  0.4849  1.0000  -0.9878   0.0000   0.0000   0.0000   0.3444
   3.000   0.6652   0.01087   0.00345  -0.0640  0.4820  1.0000  -1.0228   0.0000   0.0000   0.0000   0.3426
   3.100   0.6758   0.01094   0.00351  -0.0639  0.4791  1.0000  -1.0581   0.0000   0.0000   0.0000   0.3408
   3.200   0.6863   0.01101   0.00357  -0.0637  0.4765  1.0000  -1.0945   0.0000   0.0000   0.0000   0.3390
   3.300   0.6969   0.01109   0.00363  -0.0636  0.4742  1.0000  -1.1327   0.0000   0.0000   0.0000   0.3373
   3.400   0.7074   0.01117   0.00370  -0.0634  0.4719  1.0000  -1.1713   0.0000   0.0000   0.0000   0.3357
   3.500   0.7181   0.01123   0.00380  -0.0633  0.4691  1.0000  -1.2105   0.0000   0.0000   0.0000   0.3341
   3.600   0.7288   0.01130   0.00388  -0.0632  0.4663  1.0000  -1.2499   0.0000   0.0000   0.0000   0.3325
   3.700   0.7394   0.01137   0.00396  -0.0631  0.4635  1.0000  -1.2895   0.0000   0.0000   0.0000   0.3310
   3.800   0.7499   0.01144   0.00403  -0.0629  0.4608  1.0000  -1.3294   0.0000   0.0000   0.0000   0.3295
   3.900   0.7603   0.01152   0.00410  -0.0627  0.4578  1.0000  -1.3709   0.0000   0.0000   0.0000   0.3281
   4.000   0.7706   0.01161   0.00416  -0.0625  0.4545  1.0000  -1.4139   0.0000   0.0000   0.0000   0.3266
   4.100   0.7811   0.01166   0.00424  -0.0624  0.4499  1.0000  -1.4576   0.0000   0.0000   0.0000   0.3252
   4.200   0.7915   0.01172   0.00431  -0.0622  0.4449  1.0000  -1.5014   0.0000   0.0000   0.0000   0.3239
   4.300   0.8015   0.01180   0.00436  -0.0620  0.4398  1.0000  -1.5452   0.0000   0.0000   0.0000   0.3225
   4.400   0.8117   0.01187   0.00443  -0.0618  0.4343  1.0000  -1.5894   0.0000   0.0000   0.0000   0.3211
   4.500   0.8220   0.01193   0.00450  -0.0616  0.4283  1.0000  -1.6341   0.0000   0.0000   0.0000   0.3199
   4.600   0.8320   0.01202   0.00455  -0.0613  0.4230  1.0000  -1.6787   0.0000   0.0000   0.0000   0.3186
   4.700   0.8421   0.01209   0.00465  -0.0611  0.4177  1.0000  -1.7238   0.0000   0.0000   0.0000   0.3173
   4.800   0.8524   0.01216   0.00474  -0.0609  0.4118  1.0000  -1.7715   0.0000   0.0000   0.0000   0.3161
   4.900   0.8623   0.01225   0.00480  -0.0607  0.4063  1.0000  -1.8200   0.0000   0.0000   0.0000   0.3149
   5.000   0.8724   0.01232   0.00489  -0.0605  0.4004  1.0000  -1.8693   0.0000   0.0000   0.0000   0.3137
   5.100   0.8824   0.01240   0.00497  -0.0602  0.3939  1.0000  -1.9187   0.0000   0.0000   0.0000   0.3126
   5.200   0.8922   0.01251   0.00505  -0.0600  0.3877  1.0000  -1.9677   0.0000   0.0000   0.0000   0.3114
   5.300   0.9023   0.01258   0.00514  -0.0598  0.3802  1.0000  -2.0179   0.0000   0.0000   0.0000   0.3103
   5.400   0.9118   0.01269   0.00522  -0.0594  0.3728  1.0000  -2.0671   0.0000   0.0000   0.0000   0.3092
   5.500   0.9218   0.01277   0.00532  -0.0592  0.3641  1.0000  -2.1176   0.0000   0.0000   0.0000   0.3081
   5.600   0.9312   0.01289   0.00541  -0.0589  0.3547  1.0000  -2.1671   0.0000   0.0000   0.0000   0.3071
   5.700   0.9405   0.01302   0.00550  -0.0586  0.3433  1.0000  -2.2165   0.0000   0.0000   0.0000   0.3060
   5.800   0.9498   0.01315   0.00563  -0.0583  0.3301  1.0000  -2.2661   0.0000   0.0000   0.0000   0.3049
   5.900   0.9584   0.01333   0.00574  -0.0579  0.3127  1.0000  -2.3154   0.0000   0.0000   0.0000   0.3038
   6.000   0.9661   0.01359   0.00587  -0.0574  0.2856  1.0000  -2.3649   0.0000   0.0000   0.0000   0.3027
   6.100   0.9718   0.01404   0.00607  -0.0567  0.2405  1.0000  -2.4091   0.0000   0.0000   0.0000   0.3015
   6.200   0.9745   0.01483   0.00647  -0.0556  0.1775  1.0000  -2.4443   0.0000   0.0000   0.0000   0.3002
   6.300   0.9758   0.01580   0.00705  -0.0545  0.1180  1.0000  -2.4750   0.0000   0.0000   0.0000   0.2989
   6.400   0.9805   0.01642   0.00747  -0.0537  0.0905  1.0000  -2.5157   0.0000   0.0000   0.0000   0.2977
   6.500   0.9869   0.01685   0.00780  -0.0531  0.0762  1.0000  -2.5620   0.0000   0.0000   0.0000   0.2966
   6.600   0.9941   0.01719   0.00808  -0.0526  0.0675  1.0000  -2.6113   0.0000   0.0000   0.0000   0.2956
   6.700   1.0018   0.01747   0.00833  -0.0521  0.0619  1.0000  -2.6626   0.0000   0.0000   0.0000   0.2946
   6.800   1.0098   0.01772   0.00857  -0.0517  0.0584  1.0000  -2.7146   0.0000   0.0000   0.0000   0.2936
   6.900   1.0181   0.01794   0.00880  -0.0512  0.0557  1.0000  -2.7677   0.0000   0.0000   0.0000   0.2927
   7.000   1.0261   0.01818   0.00904  -0.0508  0.0533  1.0000  -2.8203   0.0000   0.0000   0.0000   0.2917
   7.100   1.0343   0.01839   0.00929  -0.0504  0.0513  1.0000  -2.8737   0.0000   0.0000   0.0000   0.2908
   7.200   1.0424   0.01861   0.00952  -0.0499  0.0494  1.0000  -2.9272   0.0000   0.0000   0.0000   0.2899
   7.300   1.0502   0.01885   0.00977  -0.0494  0.0477  1.0000  -2.9802   0.0000   0.0000   0.0000   0.2889
   7.400   1.0581   0.01907   0.01001  -0.0490  0.0463  1.0000  -3.0335   0.0000   0.0000   0.0000   0.2880
   7.500   1.0661   0.01928   0.01025  -0.0485  0.0449  1.0000  -3.0871   0.0000   0.0000   0.0000   0.2871
   7.600   1.0738   0.01951   0.01050  -0.0480  0.0435  1.0000  -3.1405   0.0000   0.0000   0.0000   0.2862
   7.700   1.0812   0.01975   0.01076  -0.0475  0.0423  1.0000  -3.1963   0.0000   0.0000   0.0000   0.2853
   7.800   1.0885   0.02000   0.01102  -0.0469  0.0413  1.0000  -3.2523   0.0000   0.0000   0.0000   0.2844
   7.900   1.0961   0.02022   0.01127  -0.0464  0.0401  1.0000  -3.3092   0.0000   0.0000   0.0000   0.2835
   8.000   1.1033   0.02045   0.01152  -0.0459  0.0385  1.0000  -3.3666   0.0000   0.0000   0.0000   0.2826
   8.100   1.1101   0.02071   0.01178  -0.0453  0.0368  1.0000  -3.4241   0.0000   0.0000   0.0000   0.2817
   8.200   1.1173   0.02093   0.01202  -0.0447  0.0349  1.0000  -3.4825   0.0000   0.0000   0.0000   0.2808
   8.300   1.1241   0.02118   0.01227  -0.0441  0.0331  1.0000  -3.5749   0.0000   0.0000   0.0000   0.2799
   8.400   1.1306   0.02144   0.01254  -0.0435  0.0318  1.0000  -3.6754   0.0000   0.0000   0.0000   0.2790
   8.500   1.1374   0.02167   0.01282  -0.0429  0.0309  1.0000  -3.7754   0.0000   0.0000   0.0000   0.2781
   8.600   1.1438   0.02191   0.01309  -0.0422  0.0301  1.0000  -3.8742   0.0000   0.0000   0.0000   0.2771
   8.700   1.1501   0.02217   0.01337  -0.0415  0.0294  1.0000  -3.9725   0.0000   0.0000   0.0000   0.2762
   8.800   1.1560   0.02243   0.01366  -0.0408  0.0287  1.0000  -4.0696   0.0000   0.0000   0.0000   0.2753
   8.900   1.1615   0.02270   0.01395  -0.0401  0.0281  1.0000  -4.1654   0.0000   0.0000   0.0000   0.2743
   9.000   1.1671   0.02296   0.01424  -0.0393  0.0275  1.0000  -4.2611   0.0000   0.0000   0.0000   0.2733
   9.100   1.1725   0.02322   0.01455  -0.0385  0.0269  1.0000  -4.3564   0.0000   0.0000   0.0000   0.2724
   9.200   1.1775   0.02349   0.01485  -0.0376  0.0263  1.0000  -4.4500   0.0000   0.0000   0.0000   0.2714
   9.300   1.1817   0.02376   0.01515  -0.0366  0.0258  1.0000  -4.5392   0.0000   0.0000   0.0000   0.2703
   9.400   1.1852   0.02403   0.01545  -0.0355  0.0251  1.0000  -4.6256   0.0000   0.0000   0.0000   0.2691
   9.500   1.1884   0.02431   0.01574  -0.0344  0.0243  1.0000  -4.7104   0.0000   0.0000   0.0000   0.2679
   9.600   1.1917   0.02458   0.01604  -0.0333  0.0233  1.0000  -4.7961   0.0000   0.0000   0.0000   0.2668
   9.700   1.1950   0.02487   0.01635  -0.0322  0.0221  1.0000  -4.8827   0.0000   0.0000   0.0000   0.2657
   9.800   1.1978   0.02518   0.01669  -0.0311  0.0210  1.0000  -4.9656   0.0000   0.0000   0.0000   0.2646
   9.900   1.2006   0.02550   0.01703  -0.0300  0.0202  1.0000  -5.0481   0.0000   0.0000   0.0000   0.2635
  10.000   1.2034   0.02583   0.01740  -0.0290  0.0196  1.0000  -5.1303   0.0000   0.0000   0.0000   0.2624
  10.100   1.2059   0.02617   0.01778  -0.0279  0.0190  1.0000  -5.2115   0.0000   0.0000   0.0000   0.2613
  10.200   1.2084   0.02654   0.01818  -0.0269  0.0185  1.0000  -5.2925   0.0000   0.0000   0.0000   0.2603
  10.300   1.2108   0.02691   0.01859  -0.0259  0.0180  1.0000  -5.3729   0.0000   0.0000   0.0000   0.2593
  10.400   1.2131   0.02731   0.01901  -0.0249  0.0175  1.0000  -5.4529   0.0000   0.0000   0.0000   0.2583
  10.500   1.2154   0.02771   0.01946  -0.0240  0.0171  1.0000  -5.5326   0.0000   0.0000   0.0000   0.2573
  10.600   1.2176   0.02813   0.01992  -0.0231  0.0166  1.0000  -5.6116   0.0000   0.0000   0.0000   0.2564
  10.700   1.2198   0.02857   0.02040  -0.0223  0.0162  1.0000  -5.6902   0.0000   0.0000   0.0000   0.2555
  10.800   1.2218   0.02903   0.02091  -0.0214  0.0157  1.0000  -5.7681   0.0000   0.0000   0.0000   0.2547
  10.900   1.2238   0.02951   0.02142  -0.0206  0.0151  1.0000  -5.8460   0.0000   0.0000   0.0000   0.2538
  11.000   1.2256   0.03002   0.02195  -0.0199  0.0143  1.0000  -5.9229   0.0000   0.0000   0.0000   0.2530
  11.100   1.2273   0.03054   0.02251  -0.0191  0.0131  1.0000  -5.9990   0.0000   0.0000   0.0000   0.2522
  11.200   1.2287   0.03111   0.02310  -0.0184  0.0116  1.0000  -6.0732   0.0000   0.0000   0.0000   0.2515
  11.300   1.2265   0.03196   0.02387  -0.0176  0.0046  1.0000  -6.1256   0.0000   0.0000   0.0000   0.2507
  11.400   1.2232   0.03293   0.02480  -0.0168  0.0034  1.0000  -6.1646   0.0000   0.0000   0.0000   0.2499
  11.500   1.2225   0.03373   0.02563  -0.0161  0.0031  1.0000  -6.2209   0.0000   0.0000   0.0000   0.2492
  11.600   1.2223   0.03452   0.02646  -0.0155  0.0029  1.0000  -6.2801   0.0000   0.0000   0.0000   0.2485
  11.700   1.2222   0.03533   0.02732  -0.0149  0.0028  1.0000  -6.3404   0.0000   0.0000   0.0000   0.2479
  11.800   1.2221   0.03616   0.02819  -0.0144  0.0027  1.0000  -6.4004   0.0000   0.0000   0.0000   0.2473
  11.900   1.2224   0.03698   0.02905  -0.0140  0.0026  1.0000  -6.4630   0.0000   0.0000   0.0000   0.2468
  12.000   1.2228   0.03781   0.02993  -0.0136  0.0025  1.0000  -6.5264   0.0000   0.0000   0.0000   0.2463
  12.100   1.2232   0.03865   0.03082  -0.0132  0.0025  1.0000  -6.5897   0.0000   0.0000   0.0000   0.2458
  12.200   1.2238   0.03949   0.03171  -0.0129  0.0024  1.0000  -6.6554   0.0000   0.0000   0.0000   0.2453
  12.300   1.2244   0.04035   0.03262  -0.0126  0.0024  1.0000  -6.7209   0.0000   0.0000   0.0000   0.2449
  12.400   1.2251   0.04122   0.03354  -0.0123  0.0024  1.0000  -6.7869   0.0000   0.0000   0.0000   0.2445
  12.500   1.2256   0.04212   0.03448  -0.0120  0.0023  1.0000  -6.8520   0.0000   0.0000   0.0000   0.2441
  12.600   1.2262   0.04303   0.03544  -0.0118  0.0023  1.0000  -6.9177   0.0000   0.0000   0.0000   0.2438
  12.700   1.2268   0.04396   0.03642  -0.0116  0.0023  1.0000  -6.9826   0.0000   0.0000   0.0000   0.2434
  12.800   1.2273   0.04490   0.03742  -0.0114  0.0023  1.0000  -7.0475   0.0000   0.0000   0.0000   0.2431
  12.900   1.2278   0.04586   0.03843  -0.0113  0.0022  1.0000  -7.1119   0.0000   0.0000   0.0000   0.2428
  13.000   1.2282   0.04684   0.03947  -0.0112  0.0022  1.0000  -7.1756   0.0000   0.0000   0.0000   0.2425
  13.100   1.2286   0.04783   0.04051  -0.0111  0.0022  1.0000  -7.2394   0.0000   0.0000   0.0000   0.2423
  13.200   1.2289   0.04886   0.04159  -0.0110  0.0022  1.0000  -7.3021   0.0000   0.0000   0.0000   0.2420
  13.300   1.2292   0.04990   0.04269  -0.0110  0.0022  1.0000  -7.3643   0.0000   0.0000   0.0000   0.2418
  13.400   1.2294   0.05095   0.04380  -0.0110  0.0021  1.0000  -7.4260   0.0000   0.0000   0.0000   0.2416
  13.500   1.2295   0.05204   0.04494  -0.0110  0.0021  1.0000  -7.4863   0.0000   0.0000   0.0000   0.2414
  13.600   1.2296   0.05314   0.04610  -0.0110  0.0021  1.0000  -7.5465   0.0000   0.0000   0.0000   0.2413
  13.700   1.2296   0.05427   0.04728  -0.0110  0.0021  1.0000  -7.6052   0.0000   0.0000   0.0000   0.2412
  13.800   1.2294   0.05542   0.04850  -0.0111  0.0021  1.0000  -7.6627   0.0000   0.0000   0.0000   0.2410
  13.900   1.2293   0.05660   0.04974  -0.0112  0.0021  1.0000  -7.7197   0.0000   0.0000   0.0000   0.2409
  14.000   1.2289   0.05781   0.05102  -0.0114  0.0021  1.0000  -7.7747   0.0000   0.0000   0.0000   0.2409
  14.100   1.2285   0.05905   0.05231  -0.0116  0.0021  1.0000  -7.8290   0.0000   0.0000   0.0000   0.2408
  14.200   1.2280   0.06031   0.05363  -0.0118  0.0020  1.0000  -7.8822   0.0000   0.0000   0.0000   0.2408
  14.300   1.2274   0.06161   0.05500  -0.0120  0.0020  1.0000  -7.9330   0.0000   0.0000   0.0000   0.2408
  14.400   1.2266   0.06294   0.05639  -0.0123  0.0020  1.0000  -7.9831   0.0000   0.0000   0.0000   0.2409
  14.500   1.2257   0.06431   0.05782  -0.0126  0.0020  1.0000  -8.0310   0.0000   0.0000   0.0000   0.2409
  14.600   1.2247   0.06572   0.05930  -0.0129  0.0020  1.0000  -8.0773   0.0000   0.0000   0.0000   0.2410
  14.700   1.2236   0.06716   0.06080  -0.0133  0.0020  1.0000  -8.1225   0.0000   0.0000   0.0000   0.2412
  14.800   1.2223   0.06865   0.06236  -0.0137  0.0020  1.0000  -8.1647   0.0000   0.0000   0.0000   0.2413
  14.900   1.2209   0.07018   0.06394  -0.0142  0.0020  1.0000  -8.2056   0.0000   0.0000   0.0000   0.2415
  15.000   1.2193   0.07175   0.06559  -0.0147  0.0020  1.0000  -8.2437   0.0000   0.0000   0.0000   0.2418
  15.100   1.2176   0.07338   0.06728  -0.0152  0.0020  1.0000  -8.2794   0.0000   0.0000   0.0000   0.2420
  15.200   1.2157   0.07504   0.06901  -0.0158  0.0020  1.0000  -8.3134   0.0000   0.0000   0.0000   0.2424
  15.300   1.2136   0.07677   0.07080  -0.0164  0.0020  1.0000  -8.3438   0.0000   0.0000   0.0000   0.2427
  15.400   1.2115   0.07853   0.07263  -0.0171  0.0020  1.0000  -8.3728   0.0000   0.0000   0.0000   0.2431
  15.500   1.2090   0.08037   0.07454  -0.0178  0.0020  1.0000  -8.3977   0.0000   0.0000   0.0000   0.2436
  15.600   1.2064   0.08225   0.07648  -0.0186  0.0020  1.0000  -8.4204   0.0000   0.0000   0.0000   0.2440
  15.700   1.2036   0.08419   0.07850  -0.0195  0.0020  1.0000  -8.4392   0.0000   0.0000   0.0000   0.2446
  15.800   1.2007   0.08619   0.08057  -0.0203  0.0020  1.0000  -8.4553   0.0000   0.0000   0.0000   0.2452
  15.900   1.1975   0.08826   0.08271  -0.0213  0.0020  1.0000  -8.4672   0.0000   0.0000   0.0000   0.2458
  16.000   1.1942   0.09040   0.08491  -0.0223  0.0020  1.0000  -8.4758   0.0000   0.0000   0.0000   0.2465
  16.100   1.1905   0.09260   0.08719  -0.0234  0.0020  1.0000  -8.4798   0.0000   0.0000   0.0000   0.2473
  16.200   1.1868   0.09487   0.08952  -0.0245  0.0020  1.0000  -8.4803   0.0000   0.0000   0.0000   0.2482
  16.300   1.1827   0.09722   0.09195  -0.0257  0.0020  1.0000  -8.4751   0.0000   0.0000   0.0000   0.2491
  16.400   1.1785   0.09963   0.09443  -0.0270  0.0020  1.0000  -8.4664   0.0000   0.0000   0.0000   0.2500
  16.500   1.1739   0.10215   0.09702  -0.0283  0.0020  1.0000  -8.4509   0.0000   0.0000   0.0000   0.2511
  16.600   1.1691   0.10473   0.09967  -0.0297  0.0020  1.0000  -8.4307   0.0000   0.0000   0.0000   0.2522
  16.700   1.1641   0.10740   0.10242  -0.0312  0.0020  1.0000  -8.4042   0.0000   0.0000   0.0000   0.2535
  16.800   1.1586   0.11020   0.10528  -0.0328  0.0020  1.0000  -8.3693   0.0000   0.0000   0.0000   0.2548
  16.900   1.1528   0.11308   0.10824  -0.0344  0.0020  1.0000  -8.3271   0.0000   0.0000   0.0000   0.2562
  17.000   1.1467   0.11610   0.11133  -0.0362  0.0020  1.0000  -8.2759   0.0000   0.0000   0.0000   0.2578


