xflr5 v6.59

 Calculated polar for: SUAV_Foil

 1 1 Reynolds number fixed          Mach number fixed         

 xtrf =   1.000 (top)        1.000 (bottom)
 Mach =   0.050     Re =     3.000 e 6     Ncrit =   5.000

  alpha     CL        CD       CDp       Cm    Top Xtr Bot Xtr   Cpmin    Chinge    XCp    
 ------- -------- --------- --------- -------- ------- ------- -------- --------- ---------
  -3.000   0.1000   0.00669   0.00111  -0.0963  0.5127  0.0580  -1.3394   0.0000   0.0000   0.0000   1.2241
  -2.900   0.1115   0.00667   0.00109  -0.0963  0.5109  0.0599  -1.2876   0.0000   0.0000   0.0000   1.1231
  -2.800   0.1230   0.00665   0.00107  -0.0963  0.5090  0.0615  -1.2367   0.0000   0.0000   0.0000   1.0410
  -2.700   0.1345   0.00663   0.00105  -0.0963  0.5070  0.0634  -1.1939   0.0000   0.0000   0.0000   0.9731
  -2.600   0.1460   0.00660   0.00102  -0.0963  0.5050  0.0663  -1.1516   0.0000   0.0000   0.0000   0.9160
  -2.500   0.1574   0.00658   0.00100  -0.0963  0.5029  0.0689  -1.1096   0.0000   0.0000   0.0000   0.8672
  -2.400   0.1689   0.00656   0.00099  -0.0963  0.5013  0.0709  -1.0679   0.0000   0.0000   0.0000   0.8248
  -2.300   0.1804   0.00653   0.00096  -0.0963  0.4997  0.0745  -1.0267   0.0000   0.0000   0.0000   0.7879
  -2.200   0.1919   0.00651   0.00095  -0.0964  0.4980  0.0772  -0.9858   0.0000   0.0000   0.0000   0.7554
  -2.100   0.2035   0.00649   0.00093  -0.0964  0.4960  0.0789  -0.9453   0.0000   0.0000   0.0000   0.7266
  -2.000   0.2149   0.00648   0.00092  -0.0964  0.4941  0.0813  -0.9053   0.0000   0.0000   0.0000   0.7009
  -1.900   0.2264   0.00646   0.00090  -0.0964  0.4920  0.0840  -0.8658   0.0000   0.0000   0.0000   0.6778
  -1.800   0.2379   0.00645   0.00089  -0.0964  0.4899  0.0864  -0.8282   0.0000   0.0000   0.0000   0.6570
  -1.700   0.2493   0.00644   0.00088  -0.0964  0.4880  0.0885  -0.7924   0.0000   0.0000   0.0000   0.6380
  -1.600   0.2609   0.00641   0.00086  -0.0964  0.4864  0.0928  -0.7598   0.0000   0.0000   0.0000   0.6207
  -1.500   0.2723   0.00639   0.00085  -0.0964  0.4844  0.0968  -0.7275   0.0000   0.0000   0.0000   0.6049
  -1.400   0.2838   0.00637   0.00084  -0.0964  0.4819  0.1009  -0.6956   0.0000   0.0000   0.0000   0.5904
  -1.300   0.2952   0.00635   0.00083  -0.0964  0.4793  0.1060  -0.6640   0.0000   0.0000   0.0000   0.5770
  -1.200   0.3066   0.00635   0.00082  -0.0964  0.4766  0.1099  -0.6350   0.0000   0.0000   0.0000   0.5647
  -1.100   0.3181   0.00632   0.00081  -0.0964  0.4744  0.1159  -0.6427   0.0000   0.0000   0.0000   0.5532
  -1.000   0.3296   0.00630   0.00080  -0.0964  0.4727  0.1208  -0.6504   0.0000   0.0000   0.0000   0.5425
  -0.900   0.3410   0.00628   0.00079  -0.0964  0.4708  0.1272  -0.6581   0.0000   0.0000   0.0000   0.5325
  -0.800   0.3525   0.00627   0.00079  -0.0964  0.4688  0.1314  -0.6658   0.0000   0.0000   0.0000   0.5231
  -0.700   0.3639   0.00625   0.00078  -0.0964  0.4664  0.1379  -0.6735   0.0000   0.0000   0.0000   0.5144
  -0.600   0.3753   0.00624   0.00078  -0.0964  0.4635  0.1444  -0.6812   0.0000   0.0000   0.0000   0.5062
  -0.500   0.3867   0.00623   0.00077  -0.0964  0.4605  0.1522  -0.6889   0.0000   0.0000   0.0000   0.4985
  -0.400   0.3981   0.00620   0.00077  -0.0964  0.4578  0.1595  -0.6967   0.0000   0.0000   0.0000   0.4912
  -0.300   0.4095   0.00620   0.00077  -0.0964  0.4544  0.1658  -0.7050   0.0000   0.0000   0.0000   0.4843
  -0.200   0.4208   0.00619   0.00077  -0.0964  0.4503  0.1747  -0.7133   0.0000   0.0000   0.0000   0.4779
  -0.100   0.4321   0.00618   0.00077  -0.0964  0.4466  0.1838  -0.7215   0.0000   0.0000   0.0000   0.4717
   0.000   0.4435   0.00617   0.00077  -0.0964  0.4433  0.1929  -0.7299   0.0000   0.0000   0.0000   0.4659
   0.100   0.4548   0.00616   0.00077  -0.0964  0.4389  0.2017  -0.7382   0.0000   0.0000   0.0000   0.4603
   0.200   0.4660   0.00617   0.00078  -0.0964  0.4339  0.2094  -0.7465   0.0000   0.0000   0.0000   0.4551
   0.300   0.4773   0.00616   0.00078  -0.0964  0.4302  0.2181  -0.7549   0.0000   0.0000   0.0000   0.4500
   0.400   0.4886   0.00616   0.00079  -0.0964  0.4256  0.2292  -0.7632   0.0000   0.0000   0.0000   0.4453
   0.500   0.4998   0.00616   0.00080  -0.0963  0.4204  0.2410  -0.7715   0.0000   0.0000   0.0000   0.4407
   0.600   0.5111   0.00615   0.00080  -0.0963  0.4166  0.2535  -0.7805   0.0000   0.0000   0.0000   0.4363
   0.700   0.5223   0.00614   0.00081  -0.0963  0.4123  0.2653  -0.7896   0.0000   0.0000   0.0000   0.4321
   0.800   0.5335   0.00615   0.00083  -0.0963  0.4077  0.2753  -0.7986   0.0000   0.0000   0.0000   0.4281
   0.900   0.5448   0.00615   0.00084  -0.0963  0.4043  0.2833  -0.8079   0.0000   0.0000   0.0000   0.4243
   1.000   0.5561   0.00616   0.00085  -0.0963  0.4012  0.2906  -0.8194   0.0000   0.0000   0.0000   0.4205
   1.100   0.5674   0.00616   0.00086  -0.0963  0.3977  0.2978  -0.8338   0.0000   0.0000   0.0000   0.4170
   1.200   0.5787   0.00617   0.00088  -0.0963  0.3944  0.3055  -0.8481   0.0000   0.0000   0.0000   0.4135
   1.300   0.5899   0.00618   0.00090  -0.0962  0.3913  0.3144  -0.8625   0.0000   0.0000   0.0000   0.4102
   1.400   0.6012   0.00618   0.00091  -0.0962  0.3880  0.3232  -0.8774   0.0000   0.0000   0.0000   0.4071
   1.500   0.6124   0.00620   0.00093  -0.0962  0.3834  0.3309  -0.8935   0.0000   0.0000   0.0000   0.4040
   1.600   0.6235   0.00623   0.00095  -0.0962  0.3786  0.3378  -0.9095   0.0000   0.0000   0.0000   0.4010
   1.700   0.6348   0.00624   0.00097  -0.0961  0.3748  0.3449  -0.9258   0.0000   0.0000   0.0000   0.3982
   1.800   0.6459   0.00627   0.00100  -0.0961  0.3696  0.3525  -0.9420   0.0000   0.0000   0.0000   0.3954
   1.900   0.6569   0.00630   0.00103  -0.0960  0.3639  0.3612  -0.9589   0.0000   0.0000   0.0000   0.3928
   2.000   0.6681   0.00632   0.00105  -0.0960  0.3594  0.3683  -0.9764   0.0000   0.0000   0.0000   0.3902
   2.100   0.6792   0.00636   0.00108  -0.0960  0.3531  0.3738  -0.9946   0.0000   0.0000   0.0000   0.3877
   2.200   0.6902   0.00640   0.00111  -0.0959  0.3475  0.3787  -1.0130   0.0000   0.0000   0.0000   0.3852
   2.300   0.7012   0.00645   0.00114  -0.0958  0.3408  0.3845  -1.0314   0.0000   0.0000   0.0000   0.3829
   2.400   0.7121   0.00649   0.00118  -0.0958  0.3349  0.3908  -1.0498   0.0000   0.0000   0.0000   0.3806
   2.500   0.7232   0.00653   0.00121  -0.0957  0.3296  0.3977  -1.0684   0.0000   0.0000   0.0000   0.3784
   2.600   0.7341   0.00658   0.00125  -0.0957  0.3232  0.4036  -1.0869   0.0000   0.0000   0.0000   0.3762
   2.700   0.7451   0.00662   0.00128  -0.0956  0.3177  0.4095  -1.1056   0.0000   0.0000   0.0000   0.3741
   2.800   0.7560   0.00667   0.00132  -0.0955  0.3110  0.4143  -1.1242   0.0000   0.0000   0.0000   0.3721
   2.900   0.7669   0.00673   0.00136  -0.0955  0.3049  0.4194  -1.1429   0.0000   0.0000   0.0000   0.3701
   3.100   0.7884   0.00686   0.00145  -0.0953  0.2898  0.4285  -1.1803   0.0000   0.0000   0.0000   0.3663
   3.200   0.7990   0.00695   0.00151  -0.0952  0.2806  0.4329  -1.1988   0.0000   0.0000   0.0000   0.3644
   3.300   0.8097   0.00702   0.00155  -0.0951  0.2727  0.4368  -1.2184   0.0000   0.0000   0.0000   0.3626
   3.400   0.8203   0.00710   0.00161  -0.0949  0.2646  0.4416  -1.2382   0.0000   0.0000   0.0000   0.3609
   3.500   0.8311   0.00716   0.00166  -0.0948  0.2578  0.4464  -1.2584   0.0000   0.0000   0.0000   0.3592
   3.600   0.8417   0.00724   0.00171  -0.0947  0.2511  0.4510  -1.2784   0.0000   0.0000   0.0000   0.3575
   3.700   0.8526   0.00729   0.00176  -0.0947  0.2455  0.4562  -1.2988   0.0000   0.0000   0.0000   0.3559
   3.800   0.8631   0.00738   0.00182  -0.0945  0.2382  0.4604  -1.3189   0.0000   0.0000   0.0000   0.3543
   3.900   0.8739   0.00744   0.00187  -0.0944  0.2322  0.4643  -1.3394   0.0000   0.0000   0.0000   0.3527
   4.000   0.8843   0.00753   0.00193  -0.0943  0.2247  0.4686  -1.3603   0.0000   0.0000   0.0000   0.3512
   4.100   0.8951   0.00759   0.00198  -0.0942  0.2188  0.4730  -1.3821   0.0000   0.0000   0.0000   0.3497
   4.200   0.9055   0.00768   0.00205  -0.0941  0.2118  0.4774  -1.4037   0.0000   0.0000   0.0000   0.3482
   4.300   0.9162   0.00774   0.00210  -0.0940  0.2071  0.4824  -1.4257   0.0000   0.0000   0.0000   0.3468
   4.400   0.9270   0.00780   0.00215  -0.0939  0.2026  0.4871  -1.4478   0.0000   0.0000   0.0000   0.3454
   4.500   0.9375   0.00787   0.00221  -0.0937  0.1976  0.4919  -1.4697   0.0000   0.0000   0.0000   0.3440
   4.600   0.9483   0.00792   0.00226  -0.0937  0.1944  0.4971  -1.4921   0.0000   0.0000   0.0000   0.3427
   4.800   0.9695   0.00805   0.00237  -0.0934  0.1855  0.5074  -1.5365   0.0000   0.0000   0.0000   0.3401
   4.900   0.9802   0.00811   0.00243  -0.0933  0.1817  0.5131  -1.5590   0.0000   0.0000   0.0000   0.3388
   5.000   0.9908   0.00817   0.00248  -0.0932  0.1776  0.5181  -1.5815   0.0000   0.0000   0.0000   0.3376
   5.100   1.0012   0.00825   0.00255  -0.0931  0.1724  0.5236  -1.6037   0.0000   0.0000   0.0000   0.3363
   5.200   1.0118   0.00831   0.00261  -0.0929  0.1689  0.5286  -1.6267   0.0000   0.0000   0.0000   0.3351
   5.300   1.0224   0.00837   0.00267  -0.0928  0.1654  0.5337  -1.6508   0.0000   0.0000   0.0000   0.3340
   5.400   1.0328   0.00845   0.00274  -0.0927  0.1613  0.5396  -1.6747   0.0000   0.0000   0.0000   0.3328
   5.600   1.0539   0.00856   0.00286  -0.0924  0.1548  0.5519  -1.7250   0.0000   0.0000   0.0000   0.3305
   5.700   1.0643   0.00863   0.00292  -0.0923  0.1513  0.5583  -1.7507   0.0000   0.0000   0.0000   0.3294
   5.800   1.0746   0.00871   0.00300  -0.0921  0.1474  0.5650  -1.7763   0.0000   0.0000   0.0000   0.3283
   5.900   1.0852   0.00876   0.00306  -0.0920  0.1451  0.5726  -1.8025   0.0000   0.0000   0.0000   0.3273
   6.000   1.0957   0.00881   0.00312  -0.0919  0.1427  0.5804  -1.8287   0.0000   0.0000   0.0000   0.3262
   6.100   1.1058   0.00890   0.00320  -0.0917  0.1383  0.5892  -1.8544   0.0000   0.0000   0.0000   0.3252
   6.200   1.1158   0.00899   0.00329  -0.0915  0.1329  0.5983  -1.9356   0.0000   0.0000   0.0000   0.3241
   6.300   1.1256   0.00909   0.00338  -0.0913  0.1270  0.6089  -2.0196   0.0000   0.0000   0.0000   0.3231
   6.400   1.1355   0.00918   0.00347  -0.0910  0.1215  0.6219  -2.1045   0.0000   0.0000   0.0000   0.3221
   6.500   1.1455   0.00924   0.00355  -0.0909  0.1180  0.6397  -2.1918   0.0000   0.0000   0.0000   0.3211
   6.600   1.1552   0.00932   0.00365  -0.0906  0.1135  0.6624  -2.2784   0.0000   0.0000   0.0000   0.3201
   6.700   1.1642   0.00914   0.00377  -0.0903  0.1105  0.8019  -2.3628   0.0000   0.0000   0.0000   0.3191
   6.900   1.1822   0.00907   0.00399  -0.0895  0.0987  1.0000  -2.5359   0.0000   0.0000   0.0000   0.3169
   7.000   1.1910   0.00926   0.00412  -0.0891  0.0898  1.0000  -2.6227   0.0000   0.0000   0.0000   0.3159
   7.100   1.1995   0.00947   0.00427  -0.0886  0.0802  1.0000  -2.7092   0.0000   0.0000   0.0000   0.3149
   7.200   1.2081   0.00967   0.00441  -0.0882  0.0719  1.0000  -2.7970   0.0000   0.0000   0.0000   0.3139
   7.300   1.2169   0.00984   0.00455  -0.0878  0.0655  1.0000  -2.8868   0.0000   0.0000   0.0000   0.3129
   7.400   1.2260   0.00999   0.00467  -0.0874  0.0603  1.0000  -2.9792   0.0000   0.0000   0.0000   0.3119
   7.500   1.2346   0.01017   0.00481  -0.0870  0.0542  1.0000  -3.0703   0.0000   0.0000   0.0000   0.3110
   7.600   1.2429   0.01037   0.00497  -0.0865  0.0477  1.0000  -3.1607   0.0000   0.0000   0.0000   0.3100
   7.800   1.2596   0.01076   0.00529  -0.0855  0.0367  1.0000  -3.3445   0.0000   0.0000   0.0000   0.3080
   7.900   1.2675   0.01097   0.00546  -0.0850  0.0306  1.0000  -3.4356   0.0000   0.0000   0.0000   0.3070
   8.000   1.2756   0.01117   0.00563  -0.0844  0.0257  1.0000  -3.5282   0.0000   0.0000   0.0000   0.3061
   8.100   1.2837   0.01136   0.00580  -0.0839  0.0215  1.0000  -3.6221   0.0000   0.0000   0.0000   0.3051
   8.200   1.2914   0.01157   0.00598  -0.0833  0.0168  1.0000  -3.7148   0.0000   0.0000   0.0000   0.3041
   8.300   1.2995   0.01174   0.00614  -0.0828  0.0140  1.0000  -3.8110   0.0000   0.0000   0.0000   0.3032
   8.400   1.3078   0.01191   0.00629  -0.0823  0.0118  1.0000  -3.9088   0.0000   0.0000   0.0000   0.3023
   8.500   1.3163   0.01205   0.00642  -0.0818  0.0103  1.0000  -4.0089   0.0000   0.0000   0.0000   0.3014
   8.600   1.3244   0.01221   0.00657  -0.0813  0.0087  1.0000  -4.1082   0.0000   0.0000   0.0000   0.3004
   8.700   1.3330   0.01234   0.00670  -0.0809  0.0078  1.0000  -4.2105   0.0000   0.0000   0.0000   0.2996
   8.800   1.3412   0.01249   0.00684  -0.0803  0.0068  1.0000  -4.3122   0.0000   0.0000   0.0000   0.2987
   8.900   1.3494   0.01263   0.00698  -0.0798  0.0060  1.0000  -4.4150   0.0000   0.0000   0.0000   0.2978
   9.000   1.3578   0.01276   0.00711  -0.0794  0.0055  1.0000  -4.5193   0.0000   0.0000   0.0000   0.2969
   9.100   1.3659   0.01289   0.00724  -0.0788  0.0050  1.0000  -4.6235   0.0000   0.0000   0.0000   0.2961
   9.200   1.3738   0.01304   0.00738  -0.0783  0.0045  1.0000  -4.7275   0.0000   0.0000   0.0000   0.2952
   9.300   1.3819   0.01317   0.00752  -0.0778  0.0042  1.0000  -4.8328   0.0000   0.0000   0.0000   0.2943
   9.400   1.3899   0.01329   0.00765  -0.0772  0.0040  1.0000  -4.9390   0.0000   0.0000   0.0000   0.2935
   9.500   1.3977   0.01343   0.00778  -0.0766  0.0038  1.0000  -5.0453   0.0000   0.0000   0.0000   0.2926
   9.600   1.4054   0.01356   0.00791  -0.0760  0.0036  1.0000  -5.1514   0.0000   0.0000   0.0000   0.2917
   9.700   1.4129   0.01370   0.00805  -0.0754  0.0034  1.0000  -5.2574   0.0000   0.0000   0.0000   0.2908
   9.800   1.4201   0.01384   0.00820  -0.0748  0.0033  1.0000  -5.3630   0.0000   0.0000   0.0000   0.2899
   9.900   1.4272   0.01398   0.00834  -0.0741  0.0031  1.0000  -5.4681   0.0000   0.0000   0.0000   0.2891
  10.000   1.4342   0.01412   0.00849  -0.0733  0.0029  1.0000  -5.5724   0.0000   0.0000   0.0000   0.2881
  10.100   1.4410   0.01426   0.00864  -0.0726  0.0027  1.0000  -5.6759   0.0000   0.0000   0.0000   0.2872
  10.200   1.4476   0.01440   0.00878  -0.0718  0.0027  1.0000  -5.7804   0.0000   0.0000   0.0000   0.2863
  10.300   1.4538   0.01453   0.00892  -0.0710  0.0026  1.0000  -5.8839   0.0000   0.0000   0.0000   0.2854
  10.400   1.4574   0.01465   0.00905  -0.0696  0.0026  1.0000  -5.9724   0.0000   0.0000   0.0000   0.2842
  10.500   1.4594   0.01477   0.00918  -0.0678  0.0026  1.0000  -6.0515   0.0000   0.0000   0.0000   0.2828
  10.600   1.4622   0.01490   0.00931  -0.0663  0.0025  1.0000  -6.1362   0.0000   0.0000   0.0000   0.2815
  10.700   1.4658   0.01503   0.00946  -0.0650  0.0025  1.0000  -6.2265   0.0000   0.0000   0.0000   0.2803
  10.800   1.4700   0.01518   0.00961  -0.0638  0.0024  1.0000  -6.3202   0.0000   0.0000   0.0000   0.2792
  10.900   1.4745   0.01533   0.00977  -0.0626  0.0024  1.0000  -6.4162   0.0000   0.0000   0.0000   0.2782
  11.000   1.4791   0.01548   0.00994  -0.0615  0.0023  1.0000  -6.5135   0.0000   0.0000   0.0000   0.2771
  11.100   1.4837   0.01565   0.01011  -0.0604  0.0023  1.0000  -6.6117   0.0000   0.0000   0.0000   0.2761
  11.200   1.4883   0.01581   0.01029  -0.0594  0.0022  1.0000  -6.7104   0.0000   0.0000   0.0000   0.2751
  11.300   1.4922   0.01599   0.01047  -0.0582  0.0022  1.0000  -6.8050   0.0000   0.0000   0.0000   0.2741
  11.400   1.4950   0.01618   0.01068  -0.0569  0.0021  1.0000  -6.8928   0.0000   0.0000   0.0000   0.2730
  11.500   1.4980   0.01638   0.01089  -0.0556  0.0021  1.0000  -6.9823   0.0000   0.0000   0.0000   0.2719
  11.600   1.5015   0.01658   0.01110  -0.0544  0.0020  1.0000  -7.0754   0.0000   0.0000   0.0000   0.2708
  11.700   1.5053   0.01679   0.01131  -0.0533  0.0020  1.0000  -7.1706   0.0000   0.0000   0.0000   0.2698
  11.800   1.5091   0.01700   0.01153  -0.0522  0.0020  1.0000  -7.2667   0.0000   0.0000   0.0000   0.2689
  11.900   1.5125   0.01722   0.01177  -0.0510  0.0019  1.0000  -7.3596   0.0000   0.0000   0.0000   0.2679
  12.000   1.5149   0.01746   0.01202  -0.0498  0.0019  1.0000  -7.4464   0.0000   0.0000   0.0000   0.2668
  12.100   1.5176   0.01770   0.01228  -0.0486  0.0018  1.0000  -7.5351   0.0000   0.0000   0.0000   0.2658
  12.200   1.5207   0.01794   0.01253  -0.0474  0.0018  1.0000  -7.6265   0.0000   0.0000   0.0000   0.2649
  12.300   1.5241   0.01819   0.01279  -0.0464  0.0017  1.0000  -7.7190   0.0000   0.0000   0.0000   0.2639
  12.400   1.5269   0.01845   0.01307  -0.0453  0.0017  1.0000  -7.8077   0.0000   0.0000   0.0000   0.2630
  12.500   1.5289   0.01874   0.01338  -0.0440  0.0016  1.0000  -7.8903   0.0000   0.0000   0.0000   0.2620
  12.600   1.5312   0.01904   0.01369  -0.0429  0.0016  1.0000  -7.9750   0.0000   0.0000   0.0000   0.2610
  12.700   1.5340   0.01934   0.01400  -0.0418  0.0016  1.0000  -8.0618   0.0000   0.0000   0.0000   0.2601
  12.800   1.5366   0.01965   0.01433  -0.0408  0.0015  1.0000  -8.1473   0.0000   0.0000   0.0000   0.2592
  12.900   1.5381   0.02000   0.01470  -0.0396  0.0015  1.0000  -8.2249   0.0000   0.0000   0.0000   0.2583
  13.000   1.5402   0.02034   0.01506  -0.0385  0.0015  1.0000  -8.3099   0.0000   0.0000   0.0000   0.2574
  13.100   1.5430   0.02066   0.01540  -0.0376  0.0015  1.0000  -8.4046   0.0000   0.0000   0.0000   0.2565
  13.200   1.5457   0.02100   0.01575  -0.0367  0.0015  1.0000  -8.4986   0.0000   0.0000   0.0000   0.2557
  13.300   1.5476   0.02137   0.01614  -0.0356  0.0015  1.0000  -8.5863   0.0000   0.0000   0.0000   0.2548
  13.400   1.5498   0.02175   0.01653  -0.0347  0.0015  1.0000  -8.6770   0.0000   0.0000   0.0000   0.2540
  13.500   1.5524   0.02211   0.01691  -0.0338  0.0015  1.0000  -8.7710   0.0000   0.0000   0.0000   0.2532
  13.600   1.5544   0.02251   0.01732  -0.0329  0.0015  1.0000  -8.8606   0.0000   0.0000   0.0000   0.2524
  13.700   1.5561   0.02293   0.01776  -0.0319  0.0015  1.0000  -8.9479   0.0000   0.0000   0.0000   0.2516
  13.800   1.5583   0.02334   0.01819  -0.0311  0.0015  1.0000  -9.0394   0.0000   0.0000   0.0000   0.2509
  13.900   1.5603   0.02377   0.01864  -0.0302  0.0014  1.0000  -9.1303   0.0000   0.0000   0.0000   0.2501
  14.000   1.5617   0.02424   0.01913  -0.0294  0.0014  1.0000  -9.2161   0.0000   0.0000   0.0000   0.2494
  14.100   1.5636   0.02470   0.01961  -0.0286  0.0014  1.0000  -9.3057   0.0000   0.0000   0.0000   0.2486
  14.200   1.5655   0.02517   0.02010  -0.0278  0.0014  1.0000  -9.3955   0.0000   0.0000   0.0000   0.2479
  14.300   1.5667   0.02569   0.02064  -0.0270  0.0014  1.0000  -9.4803   0.0000   0.0000   0.0000   0.2472
  14.400   1.5684   0.02620   0.02116  -0.0262  0.0014  1.0000  -9.5690   0.0000   0.0000   0.0000   0.2465
  14.500   1.5699   0.02673   0.02172  -0.0255  0.0014  1.0000  -9.6559   0.0000   0.0000   0.0000   0.2459
  14.600   1.5710   0.02729   0.02230  -0.0248  0.0014  1.0000  -9.7403   0.0000   0.0000   0.0000   0.2452
  14.700   1.5726   0.02784   0.02287  -0.0241  0.0014  1.0000  -9.8285   0.0000   0.0000   0.0000   0.2446
  14.800   1.5736   0.02844   0.02349  -0.0234  0.0014  1.0000  -9.9117   0.0000   0.0000   0.0000   0.2439
  14.900   1.5748   0.02903   0.02410  -0.0228  0.0014  1.0000  -9.9969   0.0000   0.0000   0.0000   0.2433
  15.000   1.5759   0.02965   0.02474  -0.0222  0.0014  1.0000  -10.0811   0.0000   0.0000   0.0000   0.2427


