xflr5 v6.59

 Calculated polar for: SUAV_Foil

 1 1 Reynolds number fixed          Mach number fixed         

 xtrf =   1.000 (top)        1.000 (bottom)
 Mach =   0.050     Re =     0.200 e 6     Ncrit =   5.000

  alpha     CL        CD       CDp       Cm    Top Xtr Bot Xtr   Cpmin    Chinge    XCp    
 ------- -------- --------- --------- -------- ------- ------- -------- --------- ---------
  -3.000   0.0986   0.01204   0.00390  -0.0968  0.7204  0.1416  -1.3066   0.0000   0.0000   0.0000   1.2433
  -2.800   0.1202   0.01189   0.00373  -0.0965  0.7088  0.1565  -1.2159   0.0000   0.0000   0.0000   1.0622
  -2.700   0.1310   0.01183   0.00365  -0.0964  0.7031  0.1655  -1.1750   0.0000   0.0000   0.0000   0.9940
  -2.500   0.1525   0.01169   0.00351  -0.0962  0.6924  0.1858  -1.0959   0.0000   0.0000   0.0000   0.8868
  -2.400   0.1633   0.01162   0.00345  -0.0961  0.6871  0.1981  -1.0567   0.0000   0.0000   0.0000   0.8438
  -2.300   0.1740   0.01155   0.00339  -0.0960  0.6823  0.2116  -1.0179   0.0000   0.0000   0.0000   0.8062
  -2.200   0.1849   0.01149   0.00334  -0.0959  0.6775  0.2262  -0.9793   0.0000   0.0000   0.0000   0.7729
  -2.100   0.1957   0.01143   0.00330  -0.0959  0.6727  0.2418  -0.9410   0.0000   0.0000   0.0000   0.7433
  -2.000   0.2064   0.01137   0.00327  -0.0958  0.6683  0.2583  -0.9032   0.0000   0.0000   0.0000   0.7168
  -1.900   0.2173   0.01133   0.00325  -0.0957  0.6641  0.2755  -0.8685   0.0000   0.0000   0.0000   0.6929
  -1.800   0.2281   0.01129   0.00323  -0.0956  0.6597  0.2921  -0.8340   0.0000   0.0000   0.0000   0.6712
  -1.700   0.2389   0.01126   0.00322  -0.0955  0.6555  0.3081  -0.7997   0.0000   0.0000   0.0000   0.6514
  -1.600   0.2498   0.01125   0.00321  -0.0953  0.6518  0.3236  -0.7668   0.0000   0.0000   0.0000   0.6333
  -1.500   0.2607   0.01123   0.00320  -0.0953  0.6479  0.3379  -0.7356   0.0000   0.0000   0.0000   0.6166
  -1.400   0.2717   0.01123   0.00320  -0.0952  0.6441  0.3510  -0.7047   0.0000   0.0000   0.0000   0.6013
  -1.300   0.2826   0.01123   0.00320  -0.0950  0.6406  0.3626  -0.6740   0.0000   0.0000   0.0000   0.5871
  -1.200   0.2935   0.01124   0.00319  -0.0949  0.6375  0.3736  -0.6436   0.0000   0.0000   0.0000   0.5740
  -1.100   0.3045   0.01124   0.00320  -0.0948  0.6340  0.3839  -0.6291   0.0000   0.0000   0.0000   0.5618
  -1.000   0.3154   0.01124   0.00320  -0.0947  0.6305  0.3934  -0.6363   0.0000   0.0000   0.0000   0.5505
  -0.900   0.3264   0.01126   0.00320  -0.0946  0.6272  0.4024  -0.6436   0.0000   0.0000   0.0000   0.5399
  -0.800   0.3373   0.01128   0.00319  -0.0945  0.6243  0.4115  -0.6509   0.0000   0.0000   0.0000   0.5299
  -0.700   0.3483   0.01129   0.00320  -0.0944  0.6212  0.4201  -0.6585   0.0000   0.0000   0.0000   0.5207
  -0.600   0.3593   0.01129   0.00322  -0.0943  0.6181  0.4284  -0.6661   0.0000   0.0000   0.0000   0.5120
  -0.500   0.3703   0.01131   0.00322  -0.0942  0.6151  0.4369  -0.6739   0.0000   0.0000   0.0000   0.5038
  -0.400   0.3812   0.01133   0.00323  -0.0941  0.6125  0.4450  -0.6818   0.0000   0.0000   0.0000   0.4960
  -0.300   0.3921   0.01135   0.00324  -0.0940  0.6100  0.4529  -0.6897   0.0000   0.0000   0.0000   0.4887
  -0.200   0.4032   0.01137   0.00326  -0.0939  0.6072  0.4611  -0.6977   0.0000   0.0000   0.0000   0.4818
  -0.100   0.4141   0.01137   0.00328  -0.0938  0.6043  0.4685  -0.7056   0.0000   0.0000   0.0000   0.4753
   0.000   0.4251   0.01139   0.00329  -0.0937  0.6015  0.4763  -0.7135   0.0000   0.0000   0.0000   0.4691
   0.100   0.4360   0.01141   0.00331  -0.0936  0.5990  0.4840  -0.7215   0.0000   0.0000   0.0000   0.4632
   0.200   0.4469   0.01144   0.00332  -0.0935  0.5967  0.4916  -0.7295   0.0000   0.0000   0.0000   0.4576
   0.300   0.4579   0.01145   0.00335  -0.0934  0.5940  0.4996  -0.7380   0.0000   0.0000   0.0000   0.4522
   0.400   0.4688   0.01146   0.00338  -0.0933  0.5912  0.5071  -0.7467   0.0000   0.0000   0.0000   0.4472
   0.500   0.4797   0.01148   0.00340  -0.0932  0.5886  0.5149  -0.7553   0.0000   0.0000   0.0000   0.4423
   0.600   0.4906   0.01149   0.00342  -0.0931  0.5862  0.5222  -0.7640   0.0000   0.0000   0.0000   0.4377
   0.800   0.5123   0.01153   0.00346  -0.0928  0.5817  0.5372  -0.7818   0.0000   0.0000   0.0000   0.4289
   1.000   0.5341   0.01154   0.00352  -0.0926  0.5764  0.5523  -0.8029   0.0000   0.0000   0.0000   0.4210
   1.200   0.5558   0.01157   0.00357  -0.0924  0.5718  0.5675  -0.8288   0.0000   0.0000   0.0000   0.4136
   1.300   0.5667   0.01161   0.00359  -0.0923  0.5697  0.5757  -0.8429   0.0000   0.0000   0.0000   0.4101
   1.400   0.5774   0.01160   0.00363  -0.0922  0.5671  0.5835  -0.8568   0.0000   0.0000   0.0000   0.4067
   1.500   0.5883   0.01160   0.00366  -0.0920  0.5644  0.5923  -0.8713   0.0000   0.0000   0.0000   0.4035
   1.600   0.5989   0.01160   0.00370  -0.0919  0.5619  0.6010  -0.8869   0.0000   0.0000   0.0000   0.4004
   1.800   0.6203   0.01161   0.00375  -0.0916  0.5574  0.6212  -0.9184   0.0000   0.0000   0.0000   0.3944
   1.900   0.6309   0.01161   0.00378  -0.0914  0.5550  0.6331  -0.9341   0.0000   0.0000   0.0000   0.3915
   2.000   0.6413   0.01159   0.00383  -0.0912  0.5521  0.6471  -0.9498   0.0000   0.0000   0.0000   0.3888
   2.100   0.6515   0.01155   0.00386  -0.0909  0.5494  0.6637  -0.9662   0.0000   0.0000   0.0000   0.3861
   2.200   0.6615   0.01151   0.00389  -0.0906  0.5469  0.6858  -0.9825   0.0000   0.0000   0.0000   0.3834
   2.300   0.6711   0.01143   0.00392  -0.0902  0.5445  0.7204  -0.9986   0.0000   0.0000   0.0000   0.3806
   2.400   0.6836   0.01109   0.00393  -0.0900  0.5419  0.8733  -1.0176   0.0000   0.0000   0.0000   0.3779
   2.500   0.7011   0.01107   0.00395  -0.0913  0.5381  1.0000  -1.0418   0.0000   0.0000   0.0000   0.3763
   2.600   0.7119   0.01112   0.00399  -0.0912  0.5347  1.0000  -1.0600   0.0000   0.0000   0.0000   0.3741
   2.700   0.7226   0.01118   0.00401  -0.0911  0.5315  1.0000  -1.0782   0.0000   0.0000   0.0000   0.3719
   2.800   0.7332   0.01125   0.00404  -0.0909  0.5284  1.0000  -1.0965   0.0000   0.0000   0.0000   0.3698
   2.900   0.7439   0.01129   0.00409  -0.0908  0.5244  1.0000  -1.1148   0.0000   0.0000   0.0000   0.3678
   3.000   0.7545   0.01134   0.00412  -0.0907  0.5206  1.0000  -1.1332   0.0000   0.0000   0.0000   0.3657
   3.100   0.7651   0.01141   0.00415  -0.0905  0.5173  1.0000  -1.1516   0.0000   0.0000   0.0000   0.3638
   3.200   0.7757   0.01147   0.00419  -0.0903  0.5138  1.0000  -1.1701   0.0000   0.0000   0.0000   0.3619
   3.300   0.7863   0.01151   0.00425  -0.0902  0.5098  1.0000  -1.1886   0.0000   0.0000   0.0000   0.3600
   3.400   0.7968   0.01157   0.00429  -0.0900  0.5061  1.0000  -1.2072   0.0000   0.0000   0.0000   0.3582
   3.500   0.8073   0.01164   0.00433  -0.0899  0.5029  1.0000  -1.2266   0.0000   0.0000   0.0000   0.3564
   3.600   0.8179   0.01170   0.00439  -0.0897  0.4994  1.0000  -1.2464   0.0000   0.0000   0.0000   0.3547
   3.700   0.8284   0.01175   0.00445  -0.0896  0.4957  1.0000  -1.2662   0.0000   0.0000   0.0000   0.3530
   3.800   0.8389   0.01181   0.00449  -0.0894  0.4922  1.0000  -1.2861   0.0000   0.0000   0.0000   0.3513
   3.900   0.8492   0.01188   0.00454  -0.0892  0.4890  1.0000  -1.3060   0.0000   0.0000   0.0000   0.3497
   4.000   0.8598   0.01194   0.00461  -0.0890  0.4853  1.0000  -1.3260   0.0000   0.0000   0.0000   0.3481
   4.100   0.8702   0.01200   0.00468  -0.0889  0.4815  1.0000  -1.3461   0.0000   0.0000   0.0000   0.3466
   4.200   0.8806   0.01206   0.00473  -0.0887  0.4779  1.0000  -1.3661   0.0000   0.0000   0.0000   0.3451
   4.300   0.8908   0.01214   0.00478  -0.0885  0.4747  1.0000  -1.3872   0.0000   0.0000   0.0000   0.3436
   4.400   0.9013   0.01219   0.00486  -0.0883  0.4707  1.0000  -1.4086   0.0000   0.0000   0.0000   0.3421
   4.500   0.9116   0.01226   0.00493  -0.0881  0.4668  1.0000  -1.4300   0.0000   0.0000   0.0000   0.3407
   4.600   0.9218   0.01233   0.00500  -0.0879  0.4633  1.0000  -1.4515   0.0000   0.0000   0.0000   0.3393
   4.700   0.9321   0.01241   0.00507  -0.0877  0.4598  1.0000  -1.4730   0.0000   0.0000   0.0000   0.3379
   4.800   0.9424   0.01247   0.00516  -0.0875  0.4556  1.0000  -1.4946   0.0000   0.0000   0.0000   0.3366
   4.900   0.9525   0.01254   0.00523  -0.0873  0.4515  1.0000  -1.5161   0.0000   0.0000   0.0000   0.3352
   5.000   0.9625   0.01263   0.00529  -0.0870  0.4477  1.0000  -1.5376   0.0000   0.0000   0.0000   0.3339
   5.100   0.9727   0.01269   0.00538  -0.0868  0.4431  1.0000  -1.5593   0.0000   0.0000   0.0000   0.3327
   5.200   0.9827   0.01277   0.00547  -0.0865  0.4384  1.0000  -1.5809   0.0000   0.0000   0.0000   0.3314
   5.300   0.9925   0.01285   0.00554  -0.0863  0.4342  1.0000  -1.6034   0.0000   0.0000   0.0000   0.3301
   5.400   1.0026   0.01293   0.00563  -0.0860  0.4292  1.0000  -1.6265   0.0000   0.0000   0.0000   0.3289
   5.500   1.0124   0.01301   0.00573  -0.0857  0.4240  1.0000  -1.6495   0.0000   0.0000   0.0000   0.3277
   5.600   1.0220   0.01310   0.00581  -0.0854  0.4192  1.0000  -1.6723   0.0000   0.0000   0.0000   0.3265
   5.700   1.0319   0.01318   0.00591  -0.0852  0.4135  1.0000  -1.6955   0.0000   0.0000   0.0000   0.3253
   5.800   1.0414   0.01328   0.00600  -0.0848  0.4081  1.0000  -1.7195   0.0000   0.0000   0.0000   0.3241
   5.900   1.0510   0.01337   0.00609  -0.0845  0.4025  1.0000  -1.7439   0.0000   0.0000   0.0000   0.3229
   6.000   1.0605   0.01347   0.00620  -0.0842  0.3962  1.0000  -1.7683   0.0000   0.0000   0.0000   0.3218
   6.100   1.0697   0.01358   0.00629  -0.0838  0.3899  1.0000  -1.7925   0.0000   0.0000   0.0000   0.3207
   6.200   1.0790   0.01368   0.00640  -0.0835  0.3826  1.0000  -1.8167   0.0000   0.0000   0.0000   0.3195
   6.300   1.0879   0.01380   0.00652  -0.0831  0.3754  1.0000  -1.8407   0.0000   0.0000   0.0000   0.3184
   6.400   1.0968   0.01393   0.00663  -0.0827  0.3674  1.0000  -1.8647   0.0000   0.0000   0.0000   0.3173
   6.500   1.1056   0.01406   0.00675  -0.0822  0.3592  1.0000  -1.9334   0.0000   0.0000   0.0000   0.3162
   6.600   1.1139   0.01421   0.00688  -0.0817  0.3507  1.0000  -2.0031   0.0000   0.0000   0.0000   0.3150
   6.700   1.1225   0.01435   0.00701  -0.0812  0.3416  1.0000  -2.0793   0.0000   0.0000   0.0000   0.3139
   6.800   1.1305   0.01452   0.00715  -0.0807  0.3324  1.0000  -2.1557   0.0000   0.0000   0.0000   0.3128
   6.900   1.1382   0.01470   0.00730  -0.0801  0.3227  1.0000  -2.2315   0.0000   0.0000   0.0000   0.3117
   7.000   1.1460   0.01488   0.00745  -0.0795  0.3127  1.0000  -2.3085   0.0000   0.0000   0.0000   0.3106
   7.100   1.1534   0.01509   0.00762  -0.0789  0.3031  1.0000  -2.3845   0.0000   0.0000   0.0000   0.3095
   7.200   1.1603   0.01531   0.00781  -0.0782  0.2936  1.0000  -2.4595   0.0000   0.0000   0.0000   0.3083
   7.300   1.1677   0.01552   0.00799  -0.0776  0.2842  1.0000  -2.5370   0.0000   0.0000   0.0000   0.3072
   7.400   1.1746   0.01574   0.00819  -0.0769  0.2757  1.0000  -2.6133   0.0000   0.0000   0.0000   0.3061
   7.500   1.1813   0.01598   0.00839  -0.0762  0.2675  1.0000  -2.6895   0.0000   0.0000   0.0000   0.3050
   7.600   1.1883   0.01620   0.00860  -0.0755  0.2597  1.0000  -2.7673   0.0000   0.0000   0.0000   0.3039
   7.700   1.1946   0.01645   0.00882  -0.0747  0.2522  1.0000  -2.8430   0.0000   0.0000   0.0000   0.3028
   7.800   1.2014   0.01667   0.00903  -0.0740  0.2449  1.0000  -2.9216   0.0000   0.0000   0.0000   0.3018
   7.900   1.2074   0.01693   0.00926  -0.0732  0.2383  1.0000  -2.9972   0.0000   0.0000   0.0000   0.3006
   8.000   1.2140   0.01715   0.00948  -0.0725  0.2319  1.0000  -3.0761   0.0000   0.0000   0.0000   0.2996
   8.100   1.2199   0.01740   0.00971  -0.0716  0.2259  1.0000  -3.1524   0.0000   0.0000   0.0000   0.2985
   8.200   1.2260   0.01764   0.00995  -0.0708  0.2205  1.0000  -3.2302   0.0000   0.0000   0.0000   0.2974
   8.300   1.2320   0.01787   0.01019  -0.0700  0.2151  1.0000  -3.3085   0.0000   0.0000   0.0000   0.2963
   8.500   1.2433   0.01835   0.01067  -0.0682  0.2058  1.0000  -3.4628   0.0000   0.0000   0.0000   0.2941
   8.600   1.2487   0.01859   0.01091  -0.0673  0.2013  1.0000  -3.5397   0.0000   0.0000   0.0000   0.2930
   8.700   1.2531   0.01887   0.01117  -0.0662  0.1974  1.0000  -3.6122   0.0000   0.0000   0.0000   0.2918
   8.800   1.2587   0.01908   0.01141  -0.0654  0.1933  1.0000  -3.6913   0.0000   0.0000   0.0000   0.2908
   8.900   1.2633   0.01931   0.01165  -0.0643  0.1894  1.0000  -3.7661   0.0000   0.0000   0.0000   0.2896
   9.000   1.2663   0.01956   0.01190  -0.0630  0.1859  1.0000  -3.8334   0.0000   0.0000   0.0000   0.2883
   9.100   1.2690   0.01981   0.01215  -0.0616  0.1828  1.0000  -3.8996   0.0000   0.0000   0.0000   0.2870
   9.200   1.2731   0.02002   0.01239  -0.0604  0.1794  1.0000  -3.9731   0.0000   0.0000   0.0000   0.2858
   9.300   1.2765   0.02027   0.01265  -0.0592  0.1762  1.0000  -4.0431   0.0000   0.0000   0.0000   0.2845
   9.400   1.2792   0.02054   0.01293  -0.0579  0.1732  1.0000  -4.1103   0.0000   0.0000   0.0000   0.2833
   9.500   1.2816   0.02083   0.01322  -0.0565  0.1702  1.0000  -4.1765   0.0000   0.0000   0.0000   0.2820
   9.600   1.2858   0.02107   0.01349  -0.0555  0.1661  1.0000  -4.2518   0.0000   0.0000   0.0000   0.2809
   9.700   1.2881   0.02136   0.01378  -0.0542  0.1619  1.0000  -4.3181   0.0000   0.0000   0.0000   0.2797
   9.800   1.2889   0.02171   0.01411  -0.0527  0.1580  1.0000  -4.3772   0.0000   0.0000   0.0000   0.2784
   9.900   1.2925   0.02198   0.01440  -0.0516  0.1527  1.0000  -4.4506   0.0000   0.0000   0.0000   0.2773
  10.000   1.2936   0.02234   0.01473  -0.0503  0.1479  1.0000  -4.5119   0.0000   0.0000   0.0000   0.2761
  10.100   1.2959   0.02267   0.01506  -0.0491  0.1427  1.0000  -4.5793   0.0000   0.0000   0.0000   0.2750
  10.200   1.2974   0.02303   0.01541  -0.0479  0.1374  1.0000  -4.6427   0.0000   0.0000   0.0000   0.2738
  10.300   1.2984   0.02342   0.01578  -0.0466  0.1327  1.0000  -4.7037   0.0000   0.0000   0.0000   0.2727
  10.400   1.3009   0.02376   0.01613  -0.0455  0.1272  1.0000  -4.7723   0.0000   0.0000   0.0000   0.2716
  10.500   1.3011   0.02420   0.01654  -0.0443  0.1230  1.0000  -4.8291   0.0000   0.0000   0.0000   0.2705
  10.600   1.3042   0.02454   0.01690  -0.0433  0.1184  1.0000  -4.9007   0.0000   0.0000   0.0000   0.2695
  10.700   1.3056   0.02495   0.01731  -0.0422  0.1144  1.0000  -4.9636   0.0000   0.0000   0.0000   0.2685
  10.800   1.3069   0.02538   0.01774  -0.0411  0.1108  1.0000  -5.0263   0.0000   0.0000   0.0000   0.2675
  10.900   1.3094   0.02577   0.01816  -0.0402  0.1066  1.0000  -5.0949   0.0000   0.0000   0.0000   0.2665
  11.000   1.3105   0.02623   0.01863  -0.0391  0.1029  1.0000  -5.1559   0.0000   0.0000   0.0000   0.2656
  11.100   1.3124   0.02667   0.01908  -0.0382  0.0991  1.0000  -5.2210   0.0000   0.0000   0.0000   0.2646
  11.200   1.3139   0.02714   0.01956  -0.0372  0.0949  1.0000  -5.2840   0.0000   0.0000   0.0000   0.2637
  11.300   1.3144   0.02768   0.02009  -0.0362  0.0911  1.0000  -5.3411   0.0000   0.0000   0.0000   0.2628
  11.400   1.3162   0.02816   0.02059  -0.0354  0.0866  1.0000  -5.4053   0.0000   0.0000   0.0000   0.2620
  11.500   1.3163   0.02874   0.02117  -0.0344  0.0824  1.0000  -5.4598   0.0000   0.0000   0.0000   0.2611
  11.600   1.3174   0.02929   0.02172  -0.0336  0.0776  1.0000  -5.5195   0.0000   0.0000   0.0000   0.2602
  11.700   1.3170   0.02994   0.02236  -0.0327  0.0730  1.0000  -5.5702   0.0000   0.0000   0.0000   0.2594
  11.800   1.3169   0.03060   0.02301  -0.0318  0.0675  1.0000  -5.6220   0.0000   0.0000   0.0000   0.2586
  11.900   1.3159   0.03133   0.02373  -0.0309  0.0622  1.0000  -5.6684   0.0000   0.0000   0.0000   0.2578
  12.000   1.3142   0.03213   0.02451  -0.0301  0.0568  1.0000  -5.7101   0.0000   0.0000   0.0000   0.2570
  12.100   1.3124   0.03298   0.02533  -0.0292  0.0512  1.0000  -5.7499   0.0000   0.0000   0.0000   0.2562
  12.200   1.3101   0.03387   0.02620  -0.0285  0.0460  1.0000  -5.7866   0.0000   0.0000   0.0000   0.2555
  12.300   1.3075   0.03481   0.02712  -0.0277  0.0413  1.0000  -5.8211   0.0000   0.0000   0.0000   0.2548
  12.400   1.3048   0.03580   0.02809  -0.0270  0.0369  1.0000  -5.8538   0.0000   0.0000   0.0000   0.2541
  12.500   1.3022   0.03680   0.02908  -0.0263  0.0330  1.0000  -5.8866   0.0000   0.0000   0.0000   0.2535
  12.600   1.2998   0.03782   0.03009  -0.0257  0.0298  1.0000  -5.9193   0.0000   0.0000   0.0000   0.2529
  12.700   1.2971   0.03887   0.03115  -0.0252  0.0272  1.0000  -5.9507   0.0000   0.0000   0.0000   0.2523
  12.800   1.2953   0.03989   0.03218  -0.0247  0.0250  1.0000  -5.9860   0.0000   0.0000   0.0000   0.2518
  12.900   1.2931   0.04096   0.03327  -0.0243  0.0231  1.0000  -6.0193   0.0000   0.0000   0.0000   0.2513
  13.000   1.2914   0.04201   0.03435  -0.0239  0.0216  1.0000  -6.0541   0.0000   0.0000   0.0000   0.2508
  13.100   1.2901   0.04304   0.03541  -0.0235  0.0203  1.0000  -6.0915   0.0000   0.0000   0.0000   0.2504
  13.200   1.2884   0.04413   0.03652  -0.0232  0.0192  1.0000  -6.1267   0.0000   0.0000   0.0000   0.2500
  13.300   1.2864   0.04528   0.03770  -0.0230  0.0183  1.0000  -6.1590   0.0000   0.0000   0.0000   0.2497
  13.400   1.2854   0.04635   0.03880  -0.0227  0.0175  1.0000  -6.1965   0.0000   0.0000   0.0000   0.2493
  13.500   1.2844   0.04743   0.03993  -0.0225  0.0169  1.0000  -6.2337   0.0000   0.0000   0.0000   0.2490
  13.600   1.2831   0.04856   0.04111  -0.0224  0.0163  1.0000  -6.2692   0.0000   0.0000   0.0000   0.2487
  13.700   1.2816   0.04974   0.04232  -0.0223  0.0158  1.0000  -6.3033   0.0000   0.0000   0.0000   0.2484
  13.800   1.2799   0.05096   0.04358  -0.0222  0.0154  1.0000  -6.3359   0.0000   0.0000   0.0000   0.2482
  13.900   1.2779   0.05223   0.04489  -0.0221  0.0150  1.0000  -6.3661   0.0000   0.0000   0.0000   0.2480
  14.000   1.2754   0.05357   0.04627  -0.0221  0.0147  1.0000  -6.3932   0.0000   0.0000   0.0000   0.2479
  14.100   1.2739   0.05484   0.04758  -0.0222  0.0144  1.0000  -6.4237   0.0000   0.0000   0.0000   0.2477
  14.200   1.2726   0.05609   0.04889  -0.0222  0.0141  1.0000  -6.4555   0.0000   0.0000   0.0000   0.2476
  14.300   1.2712   0.05738   0.05024  -0.0223  0.0138  1.0000  -6.4863   0.0000   0.0000   0.0000   0.2475
  14.400   1.2696   0.05872   0.05163  -0.0224  0.0135  1.0000  -6.5159   0.0000   0.0000   0.0000   0.2474
  14.500   1.2678   0.06009   0.05306  -0.0226  0.0133  1.0000  -6.5443   0.0000   0.0000   0.0000   0.2473
  14.600   1.2660   0.06150   0.05452  -0.0227  0.0130  1.0000  -6.5718   0.0000   0.0000   0.0000   0.2473
  14.700   1.2639   0.06296   0.05603  -0.0230  0.0128  1.0000  -6.5980   0.0000   0.0000   0.0000   0.2474
  14.800   1.2618   0.06444   0.05757  -0.0233  0.0126  1.0000  -6.6236   0.0000   0.0000   0.0000   0.2474
  14.900   1.2595   0.06598   0.05916  -0.0236  0.0125  1.0000  -6.6477   0.0000   0.0000   0.0000   0.2475
  15.000   1.2571   0.06755   0.06078  -0.0239  0.0123  1.0000  -6.6709   0.0000   0.0000   0.0000   0.2476
  15.100   1.2545   0.06917   0.06246  -0.0244  0.0122  1.0000  -6.6922   0.0000   0.0000   0.0000   0.2478
  15.200   1.2517   0.07084   0.06418  -0.0248  0.0120  1.0000  -6.7121   0.0000   0.0000   0.0000   0.2480
  15.300   1.2488   0.07257   0.06595  -0.0253  0.0119  1.0000  -6.7300   0.0000   0.0000   0.0000   0.2483
  15.400   1.2456   0.07435   0.06779  -0.0259  0.0118  1.0000  -6.7451   0.0000   0.0000   0.0000   0.2486
  15.500   1.2423   0.07619   0.06967  -0.0265  0.0117  1.0000  -6.7583   0.0000   0.0000   0.0000   0.2489
  15.600   1.2387   0.07809   0.07164  -0.0271  0.0116  1.0000  -6.7685   0.0000   0.0000   0.0000   0.2493
  15.700   1.2350   0.08004   0.07363  -0.0278  0.0115  1.0000  -6.7769   0.0000   0.0000   0.0000   0.2498
  15.800   1.2311   0.08205   0.07569  -0.0286  0.0114  1.0000  -6.7824   0.0000   0.0000   0.0000   0.2503
  15.900   1.2279   0.08396   0.07764  -0.0293  0.0113  1.0000  -6.7925   0.0000   0.0000   0.0000   0.2507
  16.000   1.2253   0.08580   0.07955  -0.0300  0.0112  1.0000  -6.8055   0.0000   0.0000   0.0000   0.2512
  16.100   1.2227   0.08767   0.08148  -0.0308  0.0111  1.0000  -6.8177   0.0000   0.0000   0.0000   0.2516
  16.200   1.2200   0.08957   0.08343  -0.0315  0.0111  1.0000  -6.8285   0.0000   0.0000   0.0000   0.2521
  16.300   1.2172   0.09149   0.08541  -0.0324  0.0110  1.0000  -6.8385   0.0000   0.0000   0.0000   0.2527
  16.400   1.2145   0.09342   0.08739  -0.0332  0.0109  1.0000  -6.8479   0.0000   0.0000   0.0000   0.2532
  16.500   1.2118   0.09537   0.08939  -0.0341  0.0108  1.0000  -6.8564   0.0000   0.0000   0.0000   0.2538
  16.600   1.2091   0.09732   0.09139  -0.0349  0.0107  1.0000  -6.8647   0.0000   0.0000   0.0000   0.2544
  16.700   1.2064   0.09927   0.09340  -0.0358  0.0106  1.0000  -6.8723   0.0000   0.0000   0.0000   0.2550
  16.800   1.2037   0.10122   0.09540  -0.0367  0.0106  1.0000  -6.8796   0.0000   0.0000   0.0000   0.2557
  16.900   1.2011   0.10318   0.09740  -0.0377  0.0105  1.0000  -6.8862   0.0000   0.0000   0.0000   0.2563
  17.000   1.1986   0.10513   0.09940  -0.0386  0.0104  1.0000  -6.8928   0.0000   0.0000   0.0000   0.2570


