xflr5 v6.59

 Calculated polar for: SUAV_Foil

 1 1 Reynolds number fixed          Mach number fixed         

 xtrf =   1.000 (top)        1.000 (bottom)
 Mach =   0.050     Re =     0.130 e 6     Ncrit =   5.000

  alpha     CL        CD       CDp       Cm    Top Xtr Bot Xtr   Cpmin    Chinge    XCp    
 ------- -------- --------- --------- -------- ------- ------- -------- --------- ---------
  -3.000   0.0947   0.01403   0.00543  -0.0975  0.7734  0.1698  -1.3017   0.0000   0.0000   0.0000   1.2920
  -2.900   0.1054   0.01392   0.00533  -0.0974  0.7671  0.1794  -1.2578   0.0000   0.0000   0.0000   1.1849
  -2.800   0.1163   0.01381   0.00523  -0.0973  0.7609  0.1903  -1.2145   0.0000   0.0000   0.0000   1.0962
  -2.700   0.1273   0.01370   0.00512  -0.0972  0.7555  0.2026  -1.1726   0.0000   0.0000   0.0000   1.0215
  -2.600   0.1383   0.01359   0.00502  -0.0971  0.7501  0.2159  -1.1332   0.0000   0.0000   0.0000   0.9593
  -2.500   0.1489   0.01349   0.00495  -0.0970  0.7441  0.2307  -1.0946   0.0000   0.0000   0.0000   0.9075
  -2.400   0.1598   0.01339   0.00488  -0.0969  0.7386  0.2472  -1.0557   0.0000   0.0000   0.0000   0.8619
  -2.300   0.1708   0.01331   0.00482  -0.0968  0.7338  0.2650  -1.0167   0.0000   0.0000   0.0000   0.8215
  -2.200   0.1815   0.01325   0.00479  -0.0967  0.7283  0.2826  -0.9786   0.0000   0.0000   0.0000   0.7869
  -2.100   0.1923   0.01319   0.00476  -0.0966  0.7229  0.3008  -0.9405   0.0000   0.0000   0.0000   0.7558
  -2.000   0.2032   0.01315   0.00473  -0.0964  0.7180  0.3182  -0.9032   0.0000   0.0000   0.0000   0.7277
  -1.900   0.2141   0.01313   0.00470  -0.0963  0.7134  0.3343  -0.8684   0.0000   0.0000   0.0000   0.7025
  -1.800   0.2249   0.01311   0.00468  -0.0961  0.7083  0.3494  -0.8342   0.0000   0.0000   0.0000   0.6799
  -1.700   0.2358   0.01310   0.00466  -0.0960  0.7035  0.3634  -0.8001   0.0000   0.0000   0.0000   0.6592
  -1.600   0.2467   0.01310   0.00463  -0.0958  0.6993  0.3762  -0.7670   0.0000   0.0000   0.0000   0.6402
  -1.500   0.2576   0.01310   0.00462  -0.0957  0.6949  0.3882  -0.7361   0.0000   0.0000   0.0000   0.6229
  -1.400   0.2685   0.01310   0.00461  -0.0956  0.6903  0.3995  -0.7054   0.0000   0.0000   0.0000   0.6071
  -1.300   0.2794   0.01311   0.00460  -0.0954  0.6861  0.4104  -0.6749   0.0000   0.0000   0.0000   0.5925
  -1.200   0.2903   0.01312   0.00458  -0.0952  0.6824  0.4206  -0.6445   0.0000   0.0000   0.0000   0.5788
  -1.100   0.3011   0.01312   0.00459  -0.0951  0.6782  0.4305  -0.6234   0.0000   0.0000   0.0000   0.5663
  -1.000   0.3120   0.01313   0.00458  -0.0950  0.6741  0.4401  -0.6305   0.0000   0.0000   0.0000   0.5547
  -0.900   0.3229   0.01315   0.00457  -0.0948  0.6703  0.4497  -0.6379   0.0000   0.0000   0.0000   0.5438
  -0.800   0.3338   0.01316   0.00456  -0.0947  0.6670  0.4590  -0.6454   0.0000   0.0000   0.0000   0.5335
  -0.700   0.3446   0.01317   0.00457  -0.0945  0.6634  0.4677  -0.6528   0.0000   0.0000   0.0000   0.5240
  -0.600   0.3555   0.01319   0.00458  -0.0944  0.6596  0.4766  -0.6603   0.0000   0.0000   0.0000   0.5151
  -0.500   0.3663   0.01320   0.00458  -0.0942  0.6561  0.4854  -0.6681   0.0000   0.0000   0.0000   0.5067
  -0.400   0.3772   0.01321   0.00458  -0.0941  0.6530  0.4937  -0.6760   0.0000   0.0000   0.0000   0.4987
  -0.300   0.3881   0.01324   0.00457  -0.0940  0.6499  0.5027  -0.6839   0.0000   0.0000   0.0000   0.4912
  -0.200   0.3989   0.01324   0.00460  -0.0938  0.6463  0.5111  -0.6916   0.0000   0.0000   0.0000   0.4842
  -0.100   0.4097   0.01325   0.00461  -0.0937  0.6430  0.5196  -0.6994   0.0000   0.0000   0.0000   0.4775
   0.000   0.4206   0.01327   0.00461  -0.0936  0.6400  0.5284  -0.7072   0.0000   0.0000   0.0000   0.4712
   0.100   0.4314   0.01329   0.00461  -0.0934  0.6375  0.5364  -0.7151   0.0000   0.0000   0.0000   0.4651
   0.200   0.4422   0.01331   0.00463  -0.0933  0.6343  0.5453  -0.7235   0.0000   0.0000   0.0000   0.4594
   0.300   0.4528   0.01330   0.00465  -0.0931  0.6311  0.5533  -0.7319   0.0000   0.0000   0.0000   0.4539
   0.400   0.4636   0.01332   0.00466  -0.0929  0.6281  0.5618  -0.7404   0.0000   0.0000   0.0000   0.4487
   0.500   0.4743   0.01333   0.00467  -0.0928  0.6255  0.5701  -0.7489   0.0000   0.0000   0.0000   0.4437
   0.600   0.4852   0.01335   0.00467  -0.0926  0.6231  0.5786  -0.7576   0.0000   0.0000   0.0000   0.4389
   0.700   0.4958   0.01335   0.00470  -0.0924  0.6199  0.5873  -0.7663   0.0000   0.0000   0.0000   0.4344
   0.800   0.5065   0.01335   0.00473  -0.0923  0.6169  0.5960  -0.7753   0.0000   0.0000   0.0000   0.4300
   0.900   0.5173   0.01336   0.00474  -0.0921  0.6141  0.6053  -0.7860   0.0000   0.0000   0.0000   0.4258
   1.000   0.5282   0.01337   0.00475  -0.0920  0.6117  0.6149  -0.7969   0.0000   0.0000   0.0000   0.4218
   1.100   0.5391   0.01338   0.00476  -0.0919  0.6094  0.6255  -0.8088   0.0000   0.0000   0.0000   0.4179
   1.200   0.5497   0.01337   0.00480  -0.0917  0.6064  0.6365  -0.8223   0.0000   0.0000   0.0000   0.4142
   1.300   0.5603   0.01336   0.00484  -0.0915  0.6035  0.6492  -0.8360   0.0000   0.0000   0.0000   0.4107
   1.400   0.5708   0.01334   0.00487  -0.0913  0.6008  0.6639  -0.8497   0.0000   0.0000   0.0000   0.4072
   1.500   0.5812   0.01331   0.00488  -0.0911  0.5984  0.6817  -0.8635   0.0000   0.0000   0.0000   0.4038
   1.700   0.6005   0.01315   0.00495  -0.0902  0.5934  0.7435  -0.8929   0.0000   0.0000   0.0000   0.3970
   1.800   0.6218   0.01281   0.00493  -0.0918  0.5901  1.0000  -0.9173   0.0000   0.0000   0.0000   0.3945
   1.900   0.6328   0.01289   0.00497  -0.0918  0.5874  1.0000  -0.9332   0.0000   0.0000   0.0000   0.3918
   2.000   0.6439   0.01297   0.00500  -0.0917  0.5849  1.0000  -0.9493   0.0000   0.0000   0.0000   0.3891
   2.100   0.6550   0.01306   0.00503  -0.0917  0.5827  1.0000  -0.9664   0.0000   0.0000   0.0000   0.3865
   2.200   0.6657   0.01313   0.00510  -0.0916  0.5796  1.0000  -0.9830   0.0000   0.0000   0.0000   0.3841
   2.300   0.6765   0.01320   0.00516  -0.0915  0.5766  1.0000  -0.9999   0.0000   0.0000   0.0000   0.3816
   2.400   0.6873   0.01328   0.00521  -0.0914  0.5738  1.0000  -1.0169   0.0000   0.0000   0.0000   0.3793
   2.500   0.6982   0.01336   0.00525  -0.0913  0.5713  1.0000  -1.0346   0.0000   0.0000   0.0000   0.3769
   2.600   0.7091   0.01345   0.00530  -0.0912  0.5688  1.0000  -1.0528   0.0000   0.0000   0.0000   0.3747
   2.700   0.7196   0.01352   0.00538  -0.0911  0.5655  1.0000  -1.0706   0.0000   0.0000   0.0000   0.3726
   2.800   0.7303   0.01360   0.00544  -0.0910  0.5623  1.0000  -1.0886   0.0000   0.0000   0.0000   0.3704
   2.900   0.7410   0.01367   0.00549  -0.0908  0.5593  1.0000  -1.1069   0.0000   0.0000   0.0000   0.3683
   3.000   0.7518   0.01375   0.00553  -0.0907  0.5565  1.0000  -1.1255   0.0000   0.0000   0.0000   0.3663
   3.100   0.7621   0.01382   0.00561  -0.0905  0.5528  1.0000  -1.1434   0.0000   0.0000   0.0000   0.3643
   3.200   0.7725   0.01389   0.00568  -0.0903  0.5490  1.0000  -1.1615   0.0000   0.0000   0.0000   0.3624
   3.300   0.7830   0.01396   0.00573  -0.0901  0.5455  1.0000  -1.1800   0.0000   0.0000   0.0000   0.3605
   3.400   0.7936   0.01404   0.00576  -0.0900  0.5423  1.0000  -1.1987   0.0000   0.0000   0.0000   0.3586
   3.500   0.8037   0.01411   0.00585  -0.0898  0.5380  1.0000  -1.2169   0.0000   0.0000   0.0000   0.3569
   3.600   0.8140   0.01417   0.00592  -0.0895  0.5341  1.0000  -1.2363   0.0000   0.0000   0.0000   0.3551
   3.700   0.8245   0.01425   0.00596  -0.0893  0.5307  1.0000  -1.2562   0.0000   0.0000   0.0000   0.3533
   3.800   0.8348   0.01432   0.00602  -0.0891  0.5270  1.0000  -1.2757   0.0000   0.0000   0.0000   0.3517
   3.900   0.8449   0.01439   0.00611  -0.0889  0.5228  1.0000  -1.2952   0.0000   0.0000   0.0000   0.3500
   4.000   0.8551   0.01446   0.00618  -0.0887  0.5190  1.0000  -1.3149   0.0000   0.0000   0.0000   0.3484
   4.100   0.8656   0.01453   0.00622  -0.0885  0.5158  1.0000  -1.3351   0.0000   0.0000   0.0000   0.3468
   4.200   0.8756   0.01460   0.00632  -0.0882  0.5116  1.0000  -1.3545   0.0000   0.0000   0.0000   0.3453
   4.300   0.8857   0.01468   0.00641  -0.0880  0.5076  1.0000  -1.3745   0.0000   0.0000   0.0000   0.3437
   4.400   0.8959   0.01475   0.00647  -0.0878  0.5041  1.0000  -1.3957   0.0000   0.0000   0.0000   0.3422
   4.500   0.9061   0.01483   0.00654  -0.0876  0.5005  1.0000  -1.4169   0.0000   0.0000   0.0000   0.3408
   4.600   0.9160   0.01490   0.00664  -0.0873  0.4962  1.0000  -1.4378   0.0000   0.0000   0.0000   0.3393
   4.700   0.9261   0.01498   0.00672  -0.0870  0.4922  1.0000  -1.4590   0.0000   0.0000   0.0000   0.3379
   4.800   0.9363   0.01505   0.00679  -0.0868  0.4888  1.0000  -1.4805   0.0000   0.0000   0.0000   0.3365
   4.900   0.9461   0.01513   0.00690  -0.0865  0.4843  1.0000  -1.5015   0.0000   0.0000   0.0000   0.3352
   5.000   0.9560   0.01521   0.00700  -0.0863  0.4800  1.0000  -1.5227   0.0000   0.0000   0.0000   0.3338
   5.100   0.9659   0.01529   0.00707  -0.0860  0.4762  1.0000  -1.5442   0.0000   0.0000   0.0000   0.3325
   5.200   0.9758   0.01537   0.00717  -0.0857  0.4719  1.0000  -1.5654   0.0000   0.0000   0.0000   0.3312
   5.300   0.9855   0.01545   0.00728  -0.0854  0.4673  1.0000  -1.5872   0.0000   0.0000   0.0000   0.3299
   5.400   0.9953   0.01554   0.00736  -0.0851  0.4632  1.0000  -1.6099   0.0000   0.0000   0.0000   0.3287
   5.500   1.0050   0.01562   0.00747  -0.0848  0.4589  1.0000  -1.6327   0.0000   0.0000   0.0000   0.3274
   5.600   1.0146   0.01571   0.00759  -0.0845  0.4540  1.0000  -1.6552   0.0000   0.0000   0.0000   0.3262
   5.700   1.0242   0.01580   0.00767  -0.0842  0.4494  1.0000  -1.6779   0.0000   0.0000   0.0000   0.3250
   5.800   1.0337   0.01589   0.00778  -0.0838  0.4444  1.0000  -1.7011   0.0000   0.0000   0.0000   0.3238
   5.900   1.0430   0.01598   0.00790  -0.0835  0.4390  1.0000  -1.7250   0.0000   0.0000   0.0000   0.3226
   6.000   1.0523   0.01607   0.00798  -0.0831  0.4341  1.0000  -1.7492   0.0000   0.0000   0.0000   0.3214
   6.100   1.0616   0.01617   0.00812  -0.0827  0.4283  1.0000  -1.7731   0.0000   0.0000   0.0000   0.3203
   6.200   1.0707   0.01627   0.00823  -0.0823  0.4226  1.0000  -1.7970   0.0000   0.0000   0.0000   0.3191
   6.300   1.0797   0.01637   0.00834  -0.0819  0.4168  1.0000  -1.8209   0.0000   0.0000   0.0000   0.3179
   6.400   1.0887   0.01648   0.00848  -0.0815  0.4105  1.0000  -1.8448   0.0000   0.0000   0.0000   0.3168
   6.500   1.0974   0.01659   0.00859  -0.0810  0.4044  1.0000  -1.8829   0.0000   0.0000   0.0000   0.3157
   6.600   1.1062   0.01670   0.00873  -0.0806  0.3973  1.0000  -1.9531   0.0000   0.0000   0.0000   0.3146
   6.700   1.1146   0.01683   0.00885  -0.0801  0.3906  1.0000  -2.0232   0.0000   0.0000   0.0000   0.3134
   6.800   1.1231   0.01695   0.00900  -0.0796  0.3829  1.0000  -2.0939   0.0000   0.0000   0.0000   0.3123
   6.900   1.1313   0.01709   0.00913  -0.0790  0.3753  1.0000  -2.1644   0.0000   0.0000   0.0000   0.3112
   7.000   1.1393   0.01723   0.00927  -0.0785  0.3670  1.0000  -2.2349   0.0000   0.0000   0.0000   0.3101
   7.100   1.1472   0.01739   0.00942  -0.0779  0.3584  1.0000  -2.3113   0.0000   0.0000   0.0000   0.3090
   7.200   1.1545   0.01756   0.00957  -0.0772  0.3499  1.0000  -2.3866   0.0000   0.0000   0.0000   0.3078
   7.300   1.1620   0.01773   0.00976  -0.0766  0.3404  1.0000  -2.4634   0.0000   0.0000   0.0000   0.3067
   7.400   1.1691   0.01792   0.00993  -0.0759  0.3312  1.0000  -2.5390   0.0000   0.0000   0.0000   0.3056
   7.600   1.1825   0.01834   0.01030  -0.0744  0.3126  1.0000  -2.6890   0.0000   0.0000   0.0000   0.3034
   7.700   1.1887   0.01858   0.01051  -0.0736  0.3036  1.0000  -2.7631   0.0000   0.0000   0.0000   0.3022
   7.800   1.1945   0.01883   0.01072  -0.0727  0.2949  1.0000  -2.8360   0.0000   0.0000   0.0000   0.3011
   7.900   1.2007   0.01907   0.01095  -0.0719  0.2862  1.0000  -2.9106   0.0000   0.0000   0.0000   0.2999
   8.000   1.2060   0.01935   0.01119  -0.0710  0.2785  1.0000  -2.9824   0.0000   0.0000   0.0000   0.2988
   8.100   1.2117   0.01961   0.01144  -0.0701  0.2705  1.0000  -3.0563   0.0000   0.0000   0.0000   0.2977
   8.200   1.2167   0.01989   0.01170  -0.0692  0.2637  1.0000  -3.1277   0.0000   0.0000   0.0000   0.2965
   8.300   1.2222   0.02016   0.01198  -0.0683  0.2566  1.0000  -3.2015   0.0000   0.0000   0.0000   0.2954
   8.400   1.2267   0.02045   0.01225  -0.0673  0.2505  1.0000  -3.2716   0.0000   0.0000   0.0000   0.2942
   8.500   1.2320   0.02072   0.01253  -0.0663  0.2441  1.0000  -3.3455   0.0000   0.0000   0.0000   0.2931
   8.600   1.2361   0.02103   0.01281  -0.0653  0.2386  1.0000  -3.4143   0.0000   0.0000   0.0000   0.2919
   8.700   1.2409   0.02131   0.01310  -0.0643  0.2331  1.0000  -3.4869   0.0000   0.0000   0.0000   0.2908
   8.800   1.2451   0.02160   0.01339  -0.0632  0.2279  1.0000  -3.5570   0.0000   0.0000   0.0000   0.2896
   8.900   1.2483   0.02192   0.01369  -0.0620  0.2235  1.0000  -3.6229   0.0000   0.0000   0.0000   0.2884
   9.000   1.2526   0.02218   0.01398  -0.0609  0.2189  1.0000  -3.6943   0.0000   0.0000   0.0000   0.2872
   9.100   1.2554   0.02246   0.01426  -0.0596  0.2147  1.0000  -3.7589   0.0000   0.0000   0.0000   0.2859
   9.200   1.2570   0.02277   0.01456  -0.0581  0.2112  1.0000  -3.8186   0.0000   0.0000   0.0000   0.2846
   9.300   1.2601   0.02305   0.01487  -0.0569  0.2074  1.0000  -3.8848   0.0000   0.0000   0.0000   0.2833
   9.400   1.2631   0.02334   0.01518  -0.0557  0.2036  1.0000  -3.9514   0.0000   0.0000   0.0000   0.2821
   9.500   1.2653   0.02366   0.01550  -0.0543  0.2001  1.0000  -4.0145   0.0000   0.0000   0.0000   0.2809
   9.600   1.2669   0.02402   0.01585  -0.0530  0.1971  1.0000  -4.0747   0.0000   0.0000   0.0000   0.2796
   9.700   1.2706   0.02431   0.01619  -0.0519  0.1935  1.0000  -4.1447   0.0000   0.0000   0.0000   0.2785
   9.800   1.2734   0.02462   0.01654  -0.0507  0.1901  1.0000  -4.2112   0.0000   0.0000   0.0000   0.2773
   9.900   1.2754   0.02498   0.01690  -0.0495  0.1870  1.0000  -4.2740   0.0000   0.0000   0.0000   0.2761
  10.000   1.2768   0.02536   0.01728  -0.0482  0.1843  1.0000  -4.3340   0.0000   0.0000   0.0000   0.2750
  10.100   1.2801   0.02569   0.01765  -0.0471  0.1812  1.0000  -4.4029   0.0000   0.0000   0.0000   0.2739
  10.200   1.2830   0.02604   0.01803  -0.0461  0.1780  1.0000  -4.4704   0.0000   0.0000   0.0000   0.2728
  10.300   1.2848   0.02642   0.01843  -0.0449  0.1748  1.0000  -4.5327   0.0000   0.0000   0.0000   0.2717
  10.400   1.2855   0.02685   0.01885  -0.0437  0.1718  1.0000  -4.5902   0.0000   0.0000   0.0000   0.2706
  10.500   1.2878   0.02723   0.01926  -0.0426  0.1681  1.0000  -4.6551   0.0000   0.0000   0.0000   0.2696
  10.600   1.2895   0.02762   0.01969  -0.0416  0.1639  1.0000  -4.7176   0.0000   0.0000   0.0000   0.2686
  10.700   1.2895   0.02810   0.02016  -0.0404  0.1601  1.0000  -4.7718   0.0000   0.0000   0.0000   0.2675
  10.800   1.2906   0.02855   0.02062  -0.0393  0.1559  1.0000  -4.8309   0.0000   0.0000   0.0000   0.2665
  10.900   1.2917   0.02900   0.02110  -0.0383  0.1511  1.0000  -4.8908   0.0000   0.0000   0.0000   0.2655
  11.000   1.2909   0.02955   0.02163  -0.0371  0.1471  1.0000  -4.9405   0.0000   0.0000   0.0000   0.2645
  11.100   1.2922   0.03002   0.02215  -0.0362  0.1421  1.0000  -5.0015   0.0000   0.0000   0.0000   0.2636
  11.200   1.2923   0.03057   0.02270  -0.0353  0.1374  1.0000  -5.0557   0.0000   0.0000   0.0000   0.2627
  11.300   1.2916   0.03117   0.02329  -0.0343  0.1335  1.0000  -5.1058   0.0000   0.0000   0.0000   0.2618
  11.400   1.2933   0.03168   0.02384  -0.0335  0.1284  1.0000  -5.1680   0.0000   0.0000   0.0000   0.2610
  11.500   1.2929   0.03230   0.02446  -0.0326  0.1245  1.0000  -5.2191   0.0000   0.0000   0.0000   0.2601
  11.600   1.2938   0.03289   0.02507  -0.0318  0.1206  1.0000  -5.2763   0.0000   0.0000   0.0000   0.2594
  11.700   1.2948   0.03347   0.02568  -0.0311  0.1164  1.0000  -5.3345   0.0000   0.0000   0.0000   0.2586
  11.800   1.2942   0.03418   0.02638  -0.0303  0.1129  1.0000  -5.3831   0.0000   0.0000   0.0000   0.2578
  11.900   1.2955   0.03478   0.02703  -0.0296  0.1088  1.0000  -5.4420   0.0000   0.0000   0.0000   0.2571
  12.000   1.2959   0.03546   0.02772  -0.0290  0.1045  1.0000  -5.4960   0.0000   0.0000   0.0000   0.2565
  12.100   1.2953   0.03622   0.02849  -0.0283  0.1008  1.0000  -5.5435   0.0000   0.0000   0.0000   0.2558
  12.200   1.2964   0.03689   0.02919  -0.0278  0.0960  1.0000  -5.6001   0.0000   0.0000   0.0000   0.2552
  12.300   1.2953   0.03772   0.03003  -0.0272  0.0919  1.0000  -5.6439   0.0000   0.0000   0.0000   0.2545
  12.400   1.2960   0.03845   0.03079  -0.0266  0.0869  1.0000  -5.6973   0.0000   0.0000   0.0000   0.2539
  12.500   1.2947   0.03935   0.03168  -0.0261  0.0824  1.0000  -5.7388   0.0000   0.0000   0.0000   0.2534
  12.600   1.2945   0.04020   0.03254  -0.0256  0.0769  1.0000  -5.7853   0.0000   0.0000   0.0000   0.2528
  12.700   1.2929   0.04117   0.03351  -0.0252  0.0718  1.0000  -5.8232   0.0000   0.0000   0.0000   0.2523
  12.800   1.2911   0.04219   0.03451  -0.0248  0.0662  1.0000  -5.8593   0.0000   0.0000   0.0000   0.2519
  12.900   1.2890   0.04326   0.03557  -0.0244  0.0607  1.0000  -5.8925   0.0000   0.0000   0.0000   0.2514
  13.000   1.2862   0.04442   0.03672  -0.0240  0.0558  1.0000  -5.9208   0.0000   0.0000   0.0000   0.2510
  13.100   1.2832   0.04562   0.03791  -0.0237  0.0510  1.0000  -5.9470   0.0000   0.0000   0.0000   0.2506
  13.200   1.2802   0.04686   0.03914  -0.0235  0.0467  1.0000  -5.9719   0.0000   0.0000   0.0000   0.2503
  13.300   1.2767   0.04817   0.04044  -0.0233  0.0432  1.0000  -5.9931   0.0000   0.0000   0.0000   0.2500
  13.400   1.2738   0.04946   0.04173  -0.0231  0.0398  1.0000  -6.0160   0.0000   0.0000   0.0000   0.2497
  13.500   1.2702   0.05084   0.04311  -0.0230  0.0373  1.0000  -6.0348   0.0000   0.0000   0.0000   0.2495
  13.600   1.2674   0.05218   0.04447  -0.0229  0.0348  1.0000  -6.0562   0.0000   0.0000   0.0000   0.2493
  13.700   1.2640   0.05360   0.04591  -0.0228  0.0329  1.0000  -6.0738   0.0000   0.0000   0.0000   0.2491
  13.800   1.2606   0.05505   0.04738  -0.0229  0.0313  1.0000  -6.0908   0.0000   0.0000   0.0000   0.2490
  13.900   1.2577   0.05648   0.04884  -0.0229  0.0298  1.0000  -6.1092   0.0000   0.0000   0.0000   0.2489
  14.000   1.2543   0.05798   0.05037  -0.0230  0.0285  1.0000  -6.1252   0.0000   0.0000   0.0000   0.2488
  14.100   1.2505   0.05956   0.05197  -0.0232  0.0275  1.0000  -6.1389   0.0000   0.0000   0.0000   0.2488
  14.200   1.2468   0.06116   0.05360  -0.0234  0.0267  1.0000  -6.1517   0.0000   0.0000   0.0000   0.2489
  14.300   1.2440   0.06269   0.05519  -0.0236  0.0257  1.0000  -6.1678   0.0000   0.0000   0.0000   0.2489
  14.400   1.2409   0.06428   0.05683  -0.0238  0.0249  1.0000  -6.1824   0.0000   0.0000   0.0000   0.2490
  14.500   1.2376   0.06592   0.05852  -0.0242  0.0242  1.0000  -6.1960   0.0000   0.0000   0.0000   0.2491
  14.600   1.2341   0.06762   0.06027  -0.0245  0.0236  1.0000  -6.2085   0.0000   0.0000   0.0000   0.2493
  14.700   1.2302   0.06940   0.06209  -0.0250  0.0230  1.0000  -6.2181   0.0000   0.0000   0.0000   0.2495
  14.800   1.2259   0.07127   0.06399  -0.0255  0.0226  1.0000  -6.2250   0.0000   0.0000   0.0000   0.2498
  14.900   1.2218   0.07314   0.06590  -0.0261  0.0222  1.0000  -6.2313   0.0000   0.0000   0.0000   0.2502
  15.000   1.2188   0.07489   0.06772  -0.0266  0.0217  1.0000  -6.2421   0.0000   0.0000   0.0000   0.2504


