xflr5 v6.59

 Calculated polar for: SUAV_Foil

 1 1 Reynolds number fixed          Mach number fixed         

 xtrf =   1.000 (top)        1.000 (bottom)
 Mach =   0.050     Re =     0.300 e 6     Ncrit =   5.000

  alpha     CL        CD       CDp       Cm    Top Xtr Bot Xtr   Cpmin    Chinge    XCp    
 ------- -------- --------- --------- -------- ------- ------- -------- --------- ---------
  -2.900   0.1082   0.01072   0.00291  -0.0957  0.6653  0.1251  -1.2700   0.0000   0.0000   0.0000   1.1446
  -2.700   0.1301   0.01062   0.00280  -0.0956  0.6555  0.1378  -1.1832   0.0000   0.0000   0.0000   0.9922
  -2.600   0.1410   0.01058   0.00273  -0.0955  0.6512  0.1448  -1.1429   0.0000   0.0000   0.0000   0.9340
  -2.500   0.1520   0.01053   0.00268  -0.0954  0.6467  0.1528  -1.1026   0.0000   0.0000   0.0000   0.8837
  -2.400   0.1629   0.01047   0.00264  -0.0954  0.6424  0.1616  -1.0628   0.0000   0.0000   0.0000   0.8404
  -2.300   0.1738   0.01043   0.00259  -0.0953  0.6384  0.1712  -1.0235   0.0000   0.0000   0.0000   0.8027
  -2.200   0.1848   0.01038   0.00255  -0.0952  0.6346  0.1817  -0.9843   0.0000   0.0000   0.0000   0.7693
  -2.100   0.1958   0.01032   0.00251  -0.0952  0.6307  0.1933  -0.9455   0.0000   0.0000   0.0000   0.7396
  -2.000   0.2067   0.01027   0.00247  -0.0951  0.6271  0.2063  -0.9070   0.0000   0.0000   0.0000   0.7132
  -1.900   0.2176   0.01022   0.00244  -0.0951  0.6239  0.2203  -0.8714   0.0000   0.0000   0.0000   0.6894
  -1.800   0.2286   0.01017   0.00241  -0.0950  0.6207  0.2354  -0.8365   0.0000   0.0000   0.0000   0.6679
  -1.700   0.2396   0.01012   0.00240  -0.0950  0.6173  0.2508  -0.8020   0.0000   0.0000   0.0000   0.6483
  -1.500   0.2615   0.01004   0.00237  -0.0949  0.6111  0.2822  -0.7374   0.0000   0.0000   0.0000   0.6140
  -1.400   0.2725   0.01002   0.00237  -0.0948  0.6082  0.2976  -0.7063   0.0000   0.0000   0.0000   0.5989
  -1.300   0.2835   0.00999   0.00237  -0.0948  0.6051  0.3121  -0.6754   0.0000   0.0000   0.0000   0.5849
  -1.200   0.2946   0.00997   0.00237  -0.0947  0.6021  0.3260  -0.6447   0.0000   0.0000   0.0000   0.5719
  -1.100   0.3056   0.00997   0.00237  -0.0946  0.5993  0.3388  -0.6320   0.0000   0.0000   0.0000   0.5599
  -1.000   0.3166   0.00997   0.00237  -0.0945  0.5969  0.3504  -0.6394   0.0000   0.0000   0.0000   0.5487
  -0.900   0.3277   0.00996   0.00238  -0.0945  0.5944  0.3608  -0.6467   0.0000   0.0000   0.0000   0.5382
  -0.800   0.3389   0.00996   0.00239  -0.0944  0.5917  0.3703  -0.6541   0.0000   0.0000   0.0000   0.5284
  -0.700   0.3500   0.00996   0.00240  -0.0944  0.5891  0.3794  -0.6616   0.0000   0.0000   0.0000   0.5192
  -0.600   0.3610   0.00997   0.00240  -0.0943  0.5865  0.3880  -0.6692   0.0000   0.0000   0.0000   0.5105
  -0.500   0.3720   0.00998   0.00241  -0.0942  0.5841  0.3961  -0.6769   0.0000   0.0000   0.0000   0.5024
  -0.400   0.3831   0.00999   0.00242  -0.0941  0.5818  0.4037  -0.6849   0.0000   0.0000   0.0000   0.4948
  -0.300   0.3943   0.01000   0.00243  -0.0941  0.5792  0.4116  -0.6930   0.0000   0.0000   0.0000   0.4875
  -0.200   0.4054   0.01000   0.00244  -0.0940  0.5766  0.4192  -0.7010   0.0000   0.0000   0.0000   0.4807
  -0.100   0.4165   0.01001   0.00246  -0.0939  0.5742  0.4267  -0.7091   0.0000   0.0000   0.0000   0.4742
   0.000   0.4275   0.01003   0.00247  -0.0939  0.5719  0.4345  -0.7172   0.0000   0.0000   0.0000   0.4681
   0.100   0.4385   0.01005   0.00249  -0.0938  0.5699  0.4418  -0.7252   0.0000   0.0000   0.0000   0.4623
   0.200   0.4497   0.01006   0.00250  -0.0937  0.5675  0.4492  -0.7333   0.0000   0.0000   0.0000   0.4567
   0.300   0.4607   0.01006   0.00253  -0.0936  0.5651  0.4563  -0.7415   0.0000   0.0000   0.0000   0.4515
   0.400   0.4718   0.01007   0.00254  -0.0936  0.5627  0.4634  -0.7503   0.0000   0.0000   0.0000   0.4464
   0.500   0.4828   0.01008   0.00256  -0.0935  0.5603  0.4706  -0.7591   0.0000   0.0000   0.0000   0.4416
   0.600   0.4938   0.01010   0.00258  -0.0934  0.5582  0.4777  -0.7679   0.0000   0.0000   0.0000   0.4370
   0.700   0.5048   0.01012   0.00260  -0.0933  0.5562  0.4851  -0.7767   0.0000   0.0000   0.0000   0.4326
   0.800   0.5159   0.01012   0.00263  -0.0932  0.5539  0.4920  -0.7856   0.0000   0.0000   0.0000   0.4284
   0.900   0.5270   0.01013   0.00266  -0.0932  0.5515  0.4992  -0.7956   0.0000   0.0000   0.0000   0.4244
   1.000   0.5380   0.01014   0.00268  -0.0931  0.5491  0.5062  -0.8066   0.0000   0.0000   0.0000   0.4205
   1.100   0.5490   0.01016   0.00271  -0.0930  0.5467  0.5134  -0.8189   0.0000   0.0000   0.0000   0.4168
   1.200   0.5599   0.01017   0.00273  -0.0929  0.5445  0.5199  -0.8330   0.0000   0.0000   0.0000   0.4132
   1.300   0.5708   0.01020   0.00275  -0.0928  0.5426  0.5269  -0.8470   0.0000   0.0000   0.0000   0.4098
   1.400   0.5818   0.01020   0.00278  -0.0927  0.5400  0.5336  -0.8612   0.0000   0.0000   0.0000   0.4065
   1.500   0.5928   0.01020   0.00281  -0.0927  0.5375  0.5407  -0.8764   0.0000   0.0000   0.0000   0.4033
   1.600   0.6038   0.01022   0.00284  -0.0926  0.5349  0.5475  -0.8922   0.0000   0.0000   0.0000   0.4002
   1.700   0.6146   0.01023   0.00287  -0.0924  0.5325  0.5548  -0.9081   0.0000   0.0000   0.0000   0.3972
   1.800   0.6254   0.01025   0.00289  -0.0923  0.5303  0.5619  -0.9240   0.0000   0.0000   0.0000   0.3943
   1.900   0.6363   0.01026   0.00292  -0.0922  0.5278  0.5693  -0.9400   0.0000   0.0000   0.0000   0.3915
   2.000   0.6472   0.01026   0.00296  -0.0921  0.5248  0.5771  -0.9566   0.0000   0.0000   0.0000   0.3889
   2.100   0.6580   0.01026   0.00299  -0.0920  0.5217  0.5852  -0.9736   0.0000   0.0000   0.0000   0.3862
   2.200   0.6687   0.01028   0.00301  -0.0919  0.5186  0.5940  -0.9905   0.0000   0.0000   0.0000   0.3837
   2.400   0.6899   0.01027   0.00307  -0.0916  0.5120  0.6138  -1.0254   0.0000   0.0000   0.0000   0.3788
   2.500   0.7004   0.01026   0.00310  -0.0914  0.5082  0.6256  -1.0434   0.0000   0.0000   0.0000   0.3765
   2.600   0.7108   0.01025   0.00313  -0.0912  0.5048  0.6393  -1.0613   0.0000   0.0000   0.0000   0.3742
   2.700   0.7210   0.01024   0.00316  -0.0909  0.5017  0.6563  -1.0792   0.0000   0.0000   0.0000   0.3720
   2.800   0.7311   0.01018   0.00320  -0.0907  0.4980  0.6794  -1.0970   0.0000   0.0000   0.0000   0.3698
   2.900   0.7404   0.01008   0.00323  -0.0902  0.4944  0.7170  -1.1142   0.0000   0.0000   0.0000   0.3675
   3.000   0.7571   0.00967   0.00323  -0.0910  0.4904  1.0000  -1.1386   0.0000   0.0000   0.0000   0.3657
   3.100   0.7678   0.00972   0.00326  -0.0909  0.4874  1.0000  -1.1572   0.0000   0.0000   0.0000   0.3638
   3.200   0.7787   0.00976   0.00330  -0.0908  0.4839  1.0000  -1.1759   0.0000   0.0000   0.0000   0.3619
   3.300   0.7894   0.00981   0.00335  -0.0907  0.4804  1.0000  -1.1947   0.0000   0.0000   0.0000   0.3601
   3.400   0.8000   0.00987   0.00338  -0.0905  0.4771  1.0000  -1.2135   0.0000   0.0000   0.0000   0.3583
   3.500   0.8106   0.00993   0.00342  -0.0904  0.4740  1.0000  -1.2333   0.0000   0.0000   0.0000   0.3565
   3.600   0.8214   0.00998   0.00347  -0.0903  0.4704  1.0000  -1.2534   0.0000   0.0000   0.0000   0.3548
   3.700   0.8320   0.01003   0.00352  -0.0901  0.4667  1.0000  -1.2734   0.0000   0.0000   0.0000   0.3532
   3.800   0.8425   0.01009   0.00356  -0.0900  0.4633  1.0000  -1.2934   0.0000   0.0000   0.0000   0.3515
   3.900   0.8531   0.01016   0.00361  -0.0898  0.4602  1.0000  -1.3135   0.0000   0.0000   0.0000   0.3499
   4.000   0.8638   0.01021   0.00367  -0.0897  0.4568  1.0000  -1.3338   0.0000   0.0000   0.0000   0.3484
   4.100   0.8744   0.01026   0.00372  -0.0895  0.4532  1.0000  -1.3541   0.0000   0.0000   0.0000   0.3469
   4.200   0.8848   0.01033   0.00378  -0.0894  0.4497  1.0000  -1.3747   0.0000   0.0000   0.0000   0.3453
   4.300   0.8952   0.01040   0.00383  -0.0892  0.4462  1.0000  -1.3961   0.0000   0.0000   0.0000   0.3439
   4.400   0.9058   0.01045   0.00389  -0.0890  0.4422  1.0000  -1.4179   0.0000   0.0000   0.0000   0.3424
   4.500   0.9162   0.01051   0.00395  -0.0889  0.4381  1.0000  -1.4395   0.0000   0.0000   0.0000   0.3410
   4.600   0.9264   0.01059   0.00401  -0.0887  0.4342  1.0000  -1.4609   0.0000   0.0000   0.0000   0.3396
   4.700   0.9369   0.01065   0.00408  -0.0885  0.4300  1.0000  -1.4828   0.0000   0.0000   0.0000   0.3383
   4.800   0.9473   0.01072   0.00415  -0.0883  0.4254  1.0000  -1.5045   0.0000   0.0000   0.0000   0.3369
   4.900   0.9573   0.01080   0.00421  -0.0881  0.4208  1.0000  -1.5261   0.0000   0.0000   0.0000   0.3356
   5.000   0.9676   0.01087   0.00428  -0.0879  0.4161  1.0000  -1.5480   0.0000   0.0000   0.0000   0.3343
   5.100   0.9778   0.01094   0.00435  -0.0877  0.4111  1.0000  -1.5698   0.0000   0.0000   0.0000   0.3331
   5.200   0.9877   0.01104   0.00442  -0.0874  0.4063  1.0000  -1.5914   0.0000   0.0000   0.0000   0.3318
   5.300   0.9980   0.01111   0.00450  -0.0872  0.4013  1.0000  -1.6146   0.0000   0.0000   0.0000   0.3306
   5.400   1.0079   0.01119   0.00458  -0.0870  0.3957  1.0000  -1.6377   0.0000   0.0000   0.0000   0.3294
   5.500   1.0177   0.01129   0.00467  -0.0867  0.3900  1.0000  -1.6607   0.0000   0.0000   0.0000   0.3281
   5.600   1.0276   0.01138   0.00475  -0.0865  0.3834  1.0000  -1.6839   0.0000   0.0000   0.0000   0.3270
   5.700   1.0370   0.01149   0.00484  -0.0861  0.3767  1.0000  -1.7070   0.0000   0.0000   0.0000   0.3258
   5.800   1.0467   0.01159   0.00493  -0.0858  0.3691  1.0000  -1.7315   0.0000   0.0000   0.0000   0.3246
   5.900   1.0560   0.01171   0.00503  -0.0855  0.3616  1.0000  -1.7557   0.0000   0.0000   0.0000   0.3234
   6.000   1.0653   0.01183   0.00513  -0.0852  0.3533  1.0000  -1.7799   0.0000   0.0000   0.0000   0.3223
   6.100   1.0745   0.01196   0.00523  -0.0848  0.3451  1.0000  -1.8041   0.0000   0.0000   0.0000   0.3212
   6.300   1.0922   0.01225   0.00547  -0.0840  0.3267  1.0000  -1.8519   0.0000   0.0000   0.0000   0.3189
   6.400   1.1007   0.01242   0.00560  -0.0835  0.3169  1.0000  -1.8929   0.0000   0.0000   0.0000   0.3178
   6.500   1.1089   0.01260   0.00574  -0.0830  0.3068  1.0000  -1.9681   0.0000   0.0000   0.0000   0.3166
   6.600   1.1172   0.01278   0.00589  -0.0826  0.2966  1.0000  -2.0446   0.0000   0.0000   0.0000   0.3155
   6.700   1.1254   0.01297   0.00604  -0.0820  0.2869  1.0000  -2.1214   0.0000   0.0000   0.0000   0.3144
   6.800   1.1333   0.01318   0.00620  -0.0815  0.2778  1.0000  -2.1981   0.0000   0.0000   0.0000   0.3133
   6.900   1.1414   0.01337   0.00636  -0.0810  0.2691  1.0000  -2.2763   0.0000   0.0000   0.0000   0.3122
   7.000   1.1493   0.01356   0.00653  -0.0805  0.2612  1.0000  -2.3549   0.0000   0.0000   0.0000   0.3112
   7.100   1.1571   0.01377   0.00670  -0.0799  0.2529  1.0000  -2.4334   0.0000   0.0000   0.0000   0.3101
   7.200   1.1650   0.01396   0.00689  -0.0794  0.2453  1.0000  -2.5134   0.0000   0.0000   0.0000   0.3090
   7.400   1.1802   0.01437   0.00725  -0.0782  0.2309  1.0000  -2.6735   0.0000   0.0000   0.0000   0.3069
   7.500   1.1874   0.01459   0.00744  -0.0776  0.2245  1.0000  -2.7530   0.0000   0.0000   0.0000   0.3059
   7.600   1.1952   0.01478   0.00762  -0.0770  0.2184  1.0000  -2.8356   0.0000   0.0000   0.0000   0.3048
   7.700   1.2025   0.01499   0.00781  -0.0764  0.2126  1.0000  -2.9169   0.0000   0.0000   0.0000   0.3038
   7.800   1.2098   0.01519   0.00801  -0.0758  0.2075  1.0000  -2.9992   0.0000   0.0000   0.0000   0.3028
   7.900   1.2172   0.01538   0.00819  -0.0751  0.2023  1.0000  -3.0826   0.0000   0.0000   0.0000   0.3017
   8.000   1.2239   0.01560   0.00840  -0.0744  0.1976  1.0000  -3.1634   0.0000   0.0000   0.0000   0.3007
   8.100   1.2313   0.01578   0.00859  -0.0738  0.1933  1.0000  -3.2483   0.0000   0.0000   0.0000   0.2997
   8.200   1.2384   0.01597   0.00879  -0.0731  0.1888  1.0000  -3.3324   0.0000   0.0000   0.0000   0.2987
   8.300   1.2447   0.01620   0.00900  -0.0723  0.1846  1.0000  -3.4134   0.0000   0.0000   0.0000   0.2976
   8.400   1.2516   0.01639   0.00919  -0.0716  0.1807  1.0000  -3.4980   0.0000   0.0000   0.0000   0.2966
   8.500   1.2582   0.01658   0.00939  -0.0709  0.1766  1.0000  -3.5820   0.0000   0.0000   0.0000   0.2956
   8.600   1.2640   0.01680   0.00961  -0.0700  0.1729  1.0000  -3.6629   0.0000   0.0000   0.0000   0.2945
   8.700   1.2699   0.01701   0.00982  -0.0692  0.1696  1.0000  -3.7447   0.0000   0.0000   0.0000   0.2934
   8.800   1.2762   0.01720   0.01002  -0.0684  0.1655  1.0000  -3.8289   0.0000   0.0000   0.0000   0.2924
   8.900   1.2810   0.01744   0.01025  -0.0673  0.1608  1.0000  -3.9065   0.0000   0.0000   0.0000   0.2913
   9.000   1.2849   0.01767   0.01046  -0.0662  0.1561  1.0000  -3.9806   0.0000   0.0000   0.0000   0.2900
   9.100   1.2883   0.01789   0.01067  -0.0649  0.1506  1.0000  -4.0523   0.0000   0.0000   0.0000   0.2888
   9.200   1.2898   0.01816   0.01091  -0.0633  0.1456  1.0000  -4.1153   0.0000   0.0000   0.0000   0.2873
   9.300   1.2932   0.01838   0.01113  -0.0620  0.1396  1.0000  -4.1882   0.0000   0.0000   0.0000   0.2861
   9.400   1.2945   0.01868   0.01139  -0.0605  0.1343  1.0000  -4.2506   0.0000   0.0000   0.0000   0.2847
   9.500   1.2984   0.01891   0.01161  -0.0593  0.1283  1.0000  -4.3265   0.0000   0.0000   0.0000   0.2836
   9.700   1.3041   0.01946   0.01213  -0.0568  0.1183  1.0000  -4.4678   0.0000   0.0000   0.0000   0.2812
   9.800   1.3064   0.01974   0.01240  -0.0555  0.1142  1.0000  -4.5362   0.0000   0.0000   0.0000   0.2799
   9.900   1.3089   0.02003   0.01268  -0.0542  0.1107  1.0000  -4.6057   0.0000   0.0000   0.0000   0.2787
  10.000   1.3124   0.02028   0.01295  -0.0531  0.1069  1.0000  -4.6805   0.0000   0.0000   0.0000   0.2776
  10.100   1.3149   0.02058   0.01325  -0.0519  0.1032  1.0000  -4.7504   0.0000   0.0000   0.0000   0.2765
  10.200   1.3177   0.02088   0.01355  -0.0507  0.0999  1.0000  -4.8217   0.0000   0.0000   0.0000   0.2754
  10.300   1.3205   0.02118   0.01386  -0.0496  0.0961  1.0000  -4.8935   0.0000   0.0000   0.0000   0.2743
  10.400   1.3222   0.02153   0.01420  -0.0483  0.0923  1.0000  -4.9590   0.0000   0.0000   0.0000   0.2732
  10.500   1.3247   0.02185   0.01453  -0.0472  0.0882  1.0000  -5.0294   0.0000   0.0000   0.0000   0.2721
  10.600   1.3263   0.02223   0.01489  -0.0460  0.0836  1.0000  -5.0946   0.0000   0.0000   0.0000   0.2710
  10.700   1.3276   0.02262   0.01529  -0.0448  0.0790  1.0000  -5.1580   0.0000   0.0000   0.0000   0.2699
  10.800   1.3281   0.02306   0.01571  -0.0436  0.0739  1.0000  -5.2170   0.0000   0.0000   0.0000   0.2688
  10.900   1.3288   0.02351   0.01615  -0.0424  0.0684  1.0000  -5.2770   0.0000   0.0000   0.0000   0.2677
  11.000   1.3283   0.02403   0.01664  -0.0411  0.0630  1.0000  -5.3302   0.0000   0.0000   0.0000   0.2666
  11.100   1.3273   0.02460   0.01718  -0.0398  0.0574  1.0000  -5.3799   0.0000   0.0000   0.0000   0.2655
  11.200   1.3264   0.02518   0.01774  -0.0386  0.0516  1.0000  -5.4298   0.0000   0.0000   0.0000   0.2645
  11.300   1.3248   0.02582   0.01836  -0.0373  0.0464  1.0000  -5.4752   0.0000   0.0000   0.0000   0.2634
  11.400   1.3231   0.02649   0.01900  -0.0361  0.0415  1.0000  -5.5197   0.0000   0.0000   0.0000   0.2624
  11.500   1.3212   0.02718   0.01968  -0.0349  0.0368  1.0000  -5.5625   0.0000   0.0000   0.0000   0.2614
  11.600   1.3194   0.02790   0.02038  -0.0338  0.0324  1.0000  -5.6054   0.0000   0.0000   0.0000   0.2604
  11.700   1.3177   0.02863   0.02111  -0.0328  0.0289  1.0000  -5.6483   0.0000   0.0000   0.0000   0.2595
  11.800   1.3162   0.02937   0.02185  -0.0318  0.0259  1.0000  -5.6921   0.0000   0.0000   0.0000   0.2586
  11.900   1.3150   0.03012   0.02261  -0.0309  0.0233  1.0000  -5.7368   0.0000   0.0000   0.0000   0.2578
  12.000   1.3140   0.03087   0.02337  -0.0300  0.0212  1.0000  -5.7828   0.0000   0.0000   0.0000   0.2570
  12.100   1.3131   0.03164   0.02415  -0.0292  0.0193  1.0000  -5.8288   0.0000   0.0000   0.0000   0.2562
  12.200   1.3122   0.03243   0.02495  -0.0285  0.0178  1.0000  -5.8744   0.0000   0.0000   0.0000   0.2555
  12.300   1.3118   0.03319   0.02574  -0.0278  0.0166  1.0000  -5.9228   0.0000   0.0000   0.0000   0.2548
  12.400   1.3112   0.03400   0.02657  -0.0271  0.0156  1.0000  -5.9696   0.0000   0.0000   0.0000   0.2541
  12.500   1.3103   0.03484   0.02744  -0.0265  0.0148  1.0000  -6.0142   0.0000   0.0000   0.0000   0.2535
  12.600   1.3102   0.03564   0.02827  -0.0259  0.0141  1.0000  -6.0627   0.0000   0.0000   0.0000   0.2529
  12.700   1.3104   0.03644   0.02912  -0.0254  0.0135  1.0000  -6.1125   0.0000   0.0000   0.0000   0.2523
  12.800   1.3102   0.03728   0.02999  -0.0249  0.0129  1.0000  -6.1607   0.0000   0.0000   0.0000   0.2518
  12.900   1.3099   0.03816   0.03091  -0.0245  0.0124  1.0000  -6.2076   0.0000   0.0000   0.0000   0.2512
  13.000   1.3092   0.03908   0.03186  -0.0241  0.0120  1.0000  -6.2529   0.0000   0.0000   0.0000   0.2507
  13.100   1.3082   0.04005   0.03286  -0.0237  0.0116  1.0000  -6.2957   0.0000   0.0000   0.0000   0.2503
  13.200   1.3075   0.04102   0.03386  -0.0233  0.0113  1.0000  -6.3388   0.0000   0.0000   0.0000   0.2498
  13.300   1.3077   0.04192   0.03480  -0.0230  0.0110  1.0000  -6.3877   0.0000   0.0000   0.0000   0.2494
  13.400   1.3077   0.04284   0.03578  -0.0227  0.0107  1.0000  -6.4355   0.0000   0.0000   0.0000   0.2490
  13.500   1.3076   0.04380   0.03678  -0.0225  0.0104  1.0000  -6.4829   0.0000   0.0000   0.0000   0.2486
  13.600   1.3073   0.04478   0.03781  -0.0222  0.0101  1.0000  -6.5298   0.0000   0.0000   0.0000   0.2483
  13.700   1.3069   0.04580   0.03887  -0.0220  0.0099  1.0000  -6.5758   0.0000   0.0000   0.0000   0.2479
  13.800   1.3063   0.04685   0.03996  -0.0219  0.0096  1.0000  -6.6214   0.0000   0.0000   0.0000   0.2476
  13.900   1.3055   0.04794   0.04109  -0.0217  0.0094  1.0000  -6.6655   0.0000   0.0000   0.0000   0.2474
  14.000   1.3046   0.04907   0.04225  -0.0216  0.0092  1.0000  -6.7082   0.0000   0.0000   0.0000   0.2471
  14.100   1.3033   0.05024   0.04346  -0.0216  0.0090  1.0000  -6.7492   0.0000   0.0000   0.0000   0.2469
  14.200   1.3017   0.05147   0.04473  -0.0215  0.0089  1.0000  -6.7868   0.0000   0.0000   0.0000   0.2467
  14.300   1.2998   0.05276   0.04606  -0.0216  0.0087  1.0000  -6.8207   0.0000   0.0000   0.0000   0.2465
  14.400   1.2977   0.05409   0.04743  -0.0216  0.0086  1.0000  -6.8521   0.0000   0.0000   0.0000   0.2464
  14.500   1.2971   0.05527   0.04866  -0.0217  0.0084  1.0000  -6.8949   0.0000   0.0000   0.0000   0.2462
  14.600   1.2964   0.05647   0.04991  -0.0217  0.0083  1.0000  -6.9368   0.0000   0.0000   0.0000   0.2461
  14.700   1.2955   0.05772   0.05121  -0.0218  0.0082  1.0000  -6.9768   0.0000   0.0000   0.0000   0.2460
  14.900   1.2933   0.06032   0.05391  -0.0221  0.0079  1.0000  -7.0537   0.0000   0.0000   0.0000   0.2459
  15.000   1.2920   0.06167   0.05531  -0.0224  0.0078  1.0000  -7.0907   0.0000   0.0000   0.0000   0.2459


