xflr5 v6.59

 Calculated polar for: SUAV_Foil

 1 1 Reynolds number fixed          Mach number fixed         

 xtrf =   1.000 (top)        1.000 (bottom)
 Mach =   0.050     Re =     1.000 e 6     Ncrit =   5.000

  alpha     CL        CD       CDp       Cm    Top Xtr Bot Xtr   Cpmin    Chinge    XCp    
 ------- -------- --------- --------- -------- ------- ------- -------- --------- ---------
  -3.000   0.0970   0.00826   0.00167  -0.0955  0.5684  0.0795  -1.3381   0.0000   0.0000   0.0000   1.2459
  -2.900   0.1084   0.00822   0.00163  -0.0955  0.5660  0.0828  -1.2870   0.0000   0.0000   0.0000   1.1409
  -2.800   0.1198   0.00818   0.00160  -0.0955  0.5636  0.0859  -1.2365   0.0000   0.0000   0.0000   1.0559
  -2.700   0.1311   0.00816   0.00157  -0.0955  0.5612  0.0885  -1.1942   0.0000   0.0000   0.0000   0.9855
  -2.600   0.1424   0.00813   0.00153  -0.0955  0.5589  0.0918  -1.1523   0.0000   0.0000   0.0000   0.9266
  -2.500   0.1537   0.00810   0.00151  -0.0954  0.5569  0.0952  -1.1109   0.0000   0.0000   0.0000   0.8764
  -2.400   0.1651   0.00808   0.00148  -0.0954  0.5550  0.0984  -1.0696   0.0000   0.0000   0.0000   0.8328
  -2.300   0.1765   0.00803   0.00145  -0.0954  0.5530  0.1029  -1.0288   0.0000   0.0000   0.0000   0.7949
  -2.200   0.1879   0.00800   0.00143  -0.0954  0.5509  0.1074  -0.9883   0.0000   0.0000   0.0000   0.7616
  -2.100   0.1992   0.00797   0.00140  -0.0954  0.5487  0.1120  -0.9483   0.0000   0.0000   0.0000   0.7321
  -2.000   0.2105   0.00794   0.00138  -0.0954  0.5465  0.1174  -0.9088   0.0000   0.0000   0.0000   0.7058
  -1.900   0.2218   0.00791   0.00136  -0.0954  0.5443  0.1230  -0.8700   0.0000   0.0000   0.0000   0.6823
  -1.800   0.2331   0.00789   0.00133  -0.0954  0.5423  0.1295  -0.8343   0.0000   0.0000   0.0000   0.6611
  -1.700   0.2445   0.00784   0.00131  -0.0954  0.5403  0.1366  -0.7989   0.0000   0.0000   0.0000   0.6417
  -1.600   0.2558   0.00781   0.00129  -0.0954  0.5382  0.1437  -0.7654   0.0000   0.0000   0.0000   0.6241
  -1.500   0.2672   0.00777   0.00127  -0.0954  0.5360  0.1516  -0.7334   0.0000   0.0000   0.0000   0.6080
  -1.400   0.2785   0.00774   0.00126  -0.0954  0.5340  0.1596  -0.7018   0.0000   0.0000   0.0000   0.5932
  -1.300   0.2898   0.00770   0.00124  -0.0953  0.5320  0.1685  -0.6704   0.0000   0.0000   0.0000   0.5796
  -1.100   0.3123   0.00764   0.00121  -0.0953  0.5282  0.1890  -0.6387   0.0000   0.0000   0.0000   0.5553
  -1.000   0.3237   0.00759   0.00120  -0.0953  0.5262  0.1998  -0.6463   0.0000   0.0000   0.0000   0.5445
  -0.900   0.3350   0.00755   0.00119  -0.0953  0.5242  0.2113  -0.6539   0.0000   0.0000   0.0000   0.5343
  -0.800   0.3463   0.00751   0.00118  -0.0953  0.5221  0.2241  -0.6615   0.0000   0.0000   0.0000   0.5249
  -0.700   0.3576   0.00747   0.00117  -0.0953  0.5200  0.2371  -0.6691   0.0000   0.0000   0.0000   0.5160
  -0.600   0.3688   0.00745   0.00117  -0.0953  0.5180  0.2491  -0.6767   0.0000   0.0000   0.0000   0.5077
  -0.500   0.3800   0.00742   0.00117  -0.0953  0.5161  0.2608  -0.6843   0.0000   0.0000   0.0000   0.4999
  -0.400   0.3913   0.00739   0.00117  -0.0953  0.5143  0.2736  -0.6922   0.0000   0.0000   0.0000   0.4925
  -0.300   0.4027   0.00736   0.00117  -0.0953  0.5123  0.2868  -0.7004   0.0000   0.0000   0.0000   0.4855
  -0.200   0.4140   0.00733   0.00117  -0.0953  0.5101  0.2993  -0.7087   0.0000   0.0000   0.0000   0.4788
  -0.100   0.4252   0.00731   0.00117  -0.0952  0.5078  0.3114  -0.7169   0.0000   0.0000   0.0000   0.4726
   0.000   0.4365   0.00730   0.00118  -0.0952  0.5054  0.3221  -0.7252   0.0000   0.0000   0.0000   0.4666
   0.100   0.4477   0.00729   0.00119  -0.0952  0.5031  0.3314  -0.7334   0.0000   0.0000   0.0000   0.4610
   0.300   0.4703   0.00728   0.00121  -0.0951  0.4989  0.3468  -0.7501   0.0000   0.0000   0.0000   0.4504
   0.400   0.4816   0.00728   0.00121  -0.0951  0.4966  0.3538  -0.7584   0.0000   0.0000   0.0000   0.4455
   0.500   0.4929   0.00728   0.00123  -0.0951  0.4943  0.3613  -0.7672   0.0000   0.0000   0.0000   0.4408
   0.600   0.5041   0.00728   0.00124  -0.0951  0.4918  0.3681  -0.7762   0.0000   0.0000   0.0000   0.4364
   0.700   0.5153   0.00730   0.00125  -0.0950  0.4891  0.3746  -0.7852   0.0000   0.0000   0.0000   0.4321
   0.800   0.5266   0.00730   0.00126  -0.0950  0.4864  0.3812  -0.7942   0.0000   0.0000   0.0000   0.4280
   0.900   0.5378   0.00731   0.00128  -0.0950  0.4832  0.3880  -0.8037   0.0000   0.0000   0.0000   0.4241
   1.000   0.5490   0.00731   0.00129  -0.0949  0.4796  0.3953  -0.8148   0.0000   0.0000   0.0000   0.4203
   1.100   0.5601   0.00734   0.00131  -0.0949  0.4759  0.4020  -0.8283   0.0000   0.0000   0.0000   0.4167
   1.200   0.5713   0.00735   0.00133  -0.0948  0.4725  0.4090  -0.8426   0.0000   0.0000   0.0000   0.4132
   1.300   0.5825   0.00735   0.00134  -0.0948  0.4687  0.4150  -0.8570   0.0000   0.0000   0.0000   0.4098
   1.400   0.5936   0.00737   0.00136  -0.0947  0.4648  0.4211  -0.8714   0.0000   0.0000   0.0000   0.4066
   1.500   0.6046   0.00740   0.00138  -0.0947  0.4610  0.4269  -0.8873   0.0000   0.0000   0.0000   0.4035
   1.600   0.6158   0.00741   0.00140  -0.0946  0.4574  0.4336  -0.9035   0.0000   0.0000   0.0000   0.4005
   1.700   0.6270   0.00743   0.00142  -0.0946  0.4535  0.4399  -0.9197   0.0000   0.0000   0.0000   0.3976
   1.800   0.6380   0.00745   0.00145  -0.0945  0.4498  0.4462  -0.9358   0.0000   0.0000   0.0000   0.3948
   1.900   0.6490   0.00747   0.00147  -0.0944  0.4466  0.4520  -0.9525   0.0000   0.0000   0.0000   0.3921
   2.000   0.6603   0.00749   0.00150  -0.0944  0.4434  0.4581  -0.9698   0.0000   0.0000   0.0000   0.3894
   2.100   0.6714   0.00750   0.00152  -0.0944  0.4400  0.4635  -0.9872   0.0000   0.0000   0.0000   0.3869
   2.200   0.6824   0.00753   0.00155  -0.0943  0.4365  0.4689  -1.0053   0.0000   0.0000   0.0000   0.3844
   2.300   0.6934   0.00756   0.00157  -0.0942  0.4333  0.4741  -1.0237   0.0000   0.0000   0.0000   0.3821
   2.400   0.7046   0.00757   0.00160  -0.0942  0.4305  0.4794  -1.0423   0.0000   0.0000   0.0000   0.3798
   2.500   0.7157   0.00759   0.00163  -0.0941  0.4273  0.4852  -1.0610   0.0000   0.0000   0.0000   0.3775
   2.600   0.7268   0.00762   0.00166  -0.0941  0.4239  0.4906  -1.0796   0.0000   0.0000   0.0000   0.3753
   2.700   0.7377   0.00765   0.00169  -0.0940  0.4205  0.4965  -1.0982   0.0000   0.0000   0.0000   0.3732
   2.900   0.7598   0.00770   0.00176  -0.0939  0.4134  0.5070  -1.1359   0.0000   0.0000   0.0000   0.3692
   3.000   0.7707   0.00773   0.00179  -0.0938  0.4093  0.5128  -1.1547   0.0000   0.0000   0.0000   0.3672
   3.100   0.7816   0.00777   0.00183  -0.0937  0.4056  0.5183  -1.1735   0.0000   0.0000   0.0000   0.3653
   3.200   0.7926   0.00780   0.00187  -0.0937  0.4018  0.5245  -1.1925   0.0000   0.0000   0.0000   0.3635
   3.400   0.8142   0.00788   0.00195  -0.0935  0.3924  0.5368  -1.2317   0.0000   0.0000   0.0000   0.3599
   3.500   0.8251   0.00791   0.00199  -0.0934  0.3880  0.5432  -1.2521   0.0000   0.0000   0.0000   0.3582
   3.600   0.8359   0.00795   0.00203  -0.0933  0.3831  0.5494  -1.2723   0.0000   0.0000   0.0000   0.3565
   3.700   0.8466   0.00800   0.00207  -0.0932  0.3786  0.5565  -1.2925   0.0000   0.0000   0.0000   0.3549
   3.800   0.8575   0.00803   0.00212  -0.0931  0.3743  0.5634  -1.3130   0.0000   0.0000   0.0000   0.3533
   3.900   0.8682   0.00807   0.00217  -0.0930  0.3690  0.5709  -1.3334   0.0000   0.0000   0.0000   0.3517
   4.000   0.8787   0.00813   0.00222  -0.0929  0.3638  0.5782  -1.3537   0.0000   0.0000   0.0000   0.3502
   4.100   0.8894   0.00817   0.00227  -0.0928  0.3579  0.5865  -1.3752   0.0000   0.0000   0.0000   0.3487
   4.200   0.8998   0.00824   0.00233  -0.0926  0.3508  0.5951  -1.3966   0.0000   0.0000   0.0000   0.3472
   4.300   0.9102   0.00830   0.00239  -0.0925  0.3434  0.6054  -1.4183   0.0000   0.0000   0.0000   0.3458
   4.400   0.9204   0.00838   0.00246  -0.0923  0.3349  0.6168  -1.4396   0.0000   0.0000   0.0000   0.3444
   4.500   0.9305   0.00844   0.00253  -0.0921  0.3258  0.6309  -1.4611   0.0000   0.0000   0.0000   0.3430
   4.600   0.9405   0.00851   0.00261  -0.0919  0.3174  0.6499  -1.4824   0.0000   0.0000   0.0000   0.3416
   4.700   0.9503   0.00855   0.00270  -0.0916  0.3088  0.6791  -1.5036   0.0000   0.0000   0.0000   0.3402
   4.800   0.9579   0.00834   0.00280  -0.0910  0.3014  0.8025  -1.5225   0.0000   0.0000   0.0000   0.3386
   5.000   0.9801   0.00830   0.00297  -0.0909  0.2823  1.0000  -1.5682   0.0000   0.0000   0.0000   0.3362
   5.100   0.9899   0.00843   0.00306  -0.0906  0.2733  1.0000  -1.5898   0.0000   0.0000   0.0000   0.3349
   5.200   0.9996   0.00858   0.00315  -0.0904  0.2643  1.0000  -1.6113   0.0000   0.0000   0.0000   0.3337
   5.300   1.0095   0.00870   0.00324  -0.0901  0.2553  1.0000  -1.6343   0.0000   0.0000   0.0000   0.3325
   5.400   1.0193   0.00884   0.00334  -0.0899  0.2475  1.0000  -1.6573   0.0000   0.0000   0.0000   0.3312
   5.500   1.0291   0.00896   0.00343  -0.0897  0.2400  1.0000  -1.6805   0.0000   0.0000   0.0000   0.3301
   5.600   1.0390   0.00908   0.00352  -0.0894  0.2336  1.0000  -1.7040   0.0000   0.0000   0.0000   0.3289
   5.700   1.0488   0.00920   0.00361  -0.0892  0.2270  1.0000  -1.7288   0.0000   0.0000   0.0000   0.3277
   5.800   1.0586   0.00933   0.00371  -0.0890  0.2211  1.0000  -1.7536   0.0000   0.0000   0.0000   0.3266
   5.900   1.0684   0.00945   0.00380  -0.0887  0.2147  1.0000  -1.7786   0.0000   0.0000   0.0000   0.3255
   6.000   1.0780   0.00958   0.00390  -0.0884  0.2088  1.0000  -1.8034   0.0000   0.0000   0.0000   0.3244
   6.100   1.0879   0.00969   0.00400  -0.0882  0.2029  1.0000  -1.8285   0.0000   0.0000   0.0000   0.3233
   6.300   1.1072   0.00994   0.00420  -0.0877  0.1925  1.0000  -1.9235   0.0000   0.0000   0.0000   0.3212
   6.400   1.1169   0.01006   0.00430  -0.0874  0.1873  1.0000  -2.0059   0.0000   0.0000   0.0000   0.3201
   6.500   1.1264   0.01019   0.00440  -0.0871  0.1827  1.0000  -2.0889   0.0000   0.0000   0.0000   0.3191
   6.600   1.1362   0.01029   0.00450  -0.0869  0.1783  1.0000  -2.1740   0.0000   0.0000   0.0000   0.3181
   6.700   1.1457   0.01042   0.00460  -0.0866  0.1736  1.0000  -2.2590   0.0000   0.0000   0.0000   0.3171
   6.800   1.1552   0.01054   0.00471  -0.0863  0.1698  1.0000  -2.3452   0.0000   0.0000   0.0000   0.3161
   6.900   1.1650   0.01064   0.00480  -0.0860  0.1666  1.0000  -2.4338   0.0000   0.0000   0.0000   0.3151
   7.000   1.1743   0.01077   0.00492  -0.0857  0.1622  1.0000  -2.5215   0.0000   0.0000   0.0000   0.3141
   7.100   1.1834   0.01092   0.00504  -0.0854  0.1574  1.0000  -2.6090   0.0000   0.0000   0.0000   0.3131
   7.200   1.1928   0.01104   0.00515  -0.0850  0.1526  1.0000  -2.6988   0.0000   0.0000   0.0000   0.3122
   7.300   1.2015   0.01120   0.00528  -0.0846  0.1473  1.0000  -2.7869   0.0000   0.0000   0.0000   0.3112
   7.400   1.2107   0.01133   0.00539  -0.0843  0.1430  1.0000  -2.8780   0.0000   0.0000   0.0000   0.3103
   7.500   1.2195   0.01148   0.00552  -0.0839  0.1380  1.0000  -2.9685   0.0000   0.0000   0.0000   0.3093
   7.600   1.2281   0.01164   0.00565  -0.0835  0.1328  1.0000  -3.0587   0.0000   0.0000   0.0000   0.3083
   7.700   1.2365   0.01182   0.00579  -0.0830  0.1263  1.0000  -3.1492   0.0000   0.0000   0.0000   0.3074
   7.800   1.2445   0.01201   0.00594  -0.0825  0.1191  1.0000  -3.2383   0.0000   0.0000   0.0000   0.3064
   7.900   1.2519   0.01224   0.00611  -0.0819  0.1117  1.0000  -3.3259   0.0000   0.0000   0.0000   0.3054
   8.000   1.2600   0.01241   0.00626  -0.0814  0.1052  1.0000  -3.4176   0.0000   0.0000   0.0000   0.3044
   8.100   1.2678   0.01260   0.00641  -0.0808  0.0997  1.0000  -3.5084   0.0000   0.0000   0.0000   0.3035
   8.200   1.2758   0.01277   0.00656  -0.0803  0.0946  1.0000  -3.6014   0.0000   0.0000   0.0000   0.3025
   8.300   1.2836   0.01295   0.00671  -0.0797  0.0901  1.0000  -3.6937   0.0000   0.0000   0.0000   0.3016
   8.400   1.2913   0.01313   0.00687  -0.0792  0.0848  1.0000  -3.7867   0.0000   0.0000   0.0000   0.3006
   8.500   1.2984   0.01333   0.00704  -0.0785  0.0795  1.0000  -3.8776   0.0000   0.0000   0.0000   0.2996
   8.600   1.3049   0.01357   0.00724  -0.0777  0.0729  1.0000  -3.9655   0.0000   0.0000   0.0000   0.2986
   8.700   1.3110   0.01382   0.00744  -0.0769  0.0658  1.0000  -4.0523   0.0000   0.0000   0.0000   0.2976
   8.800   1.3166   0.01408   0.00766  -0.0760  0.0587  1.0000  -4.1370   0.0000   0.0000   0.0000   0.2965
   8.900   1.3217   0.01436   0.00789  -0.0750  0.0517  1.0000  -4.2196   0.0000   0.0000   0.0000   0.2954
   9.000   1.3263   0.01465   0.00815  -0.0739  0.0451  1.0000  -4.3002   0.0000   0.0000   0.0000   0.2943
   9.100   1.3307   0.01493   0.00840  -0.0728  0.0390  1.0000  -4.3800   0.0000   0.0000   0.0000   0.2931
   9.200   1.3346   0.01522   0.00866  -0.0716  0.0332  1.0000  -4.4577   0.0000   0.0000   0.0000   0.2919
   9.300   1.3382   0.01550   0.00891  -0.0704  0.0283  1.0000  -4.5343   0.0000   0.0000   0.0000   0.2907
   9.400   1.3407   0.01575   0.00914  -0.0689  0.0246  1.0000  -4.6055   0.0000   0.0000   0.0000   0.2893
   9.500   1.3416   0.01598   0.00936  -0.0670  0.0216  1.0000  -4.6686   0.0000   0.0000   0.0000   0.2878
   9.600   1.3425   0.01621   0.00959  -0.0652  0.0186  1.0000  -4.7326   0.0000   0.0000   0.0000   0.2863
   9.700   1.3444   0.01644   0.00982  -0.0636  0.0163  1.0000  -4.8017   0.0000   0.0000   0.0000   0.2849
   9.800   1.3468   0.01668   0.01005  -0.0622  0.0143  1.0000  -4.8734   0.0000   0.0000   0.0000   0.2836
   9.900   1.3500   0.01690   0.01028  -0.0609  0.0128  1.0000  -4.9508   0.0000   0.0000   0.0000   0.2824
  10.100   1.3566   0.01736   0.01075  -0.0583  0.0104  1.0000  -5.1067   0.0000   0.0000   0.0000   0.2800
  10.200   1.3592   0.01760   0.01100  -0.0570  0.0094  1.0000  -5.1812   0.0000   0.0000   0.0000   0.2788
  10.300   1.3614   0.01786   0.01127  -0.0556  0.0086  1.0000  -5.2538   0.0000   0.0000   0.0000   0.2776
  10.400   1.3646   0.01809   0.01151  -0.0544  0.0081  1.0000  -5.3326   0.0000   0.0000   0.0000   0.2765
  10.500   1.3680   0.01833   0.01177  -0.0532  0.0075  1.0000  -5.4124   0.0000   0.0000   0.0000   0.2754
  10.600   1.3713   0.01858   0.01203  -0.0520  0.0070  1.0000  -5.4920   0.0000   0.0000   0.0000   0.2743
  10.700   1.3738   0.01886   0.01232  -0.0508  0.0066  1.0000  -5.5676   0.0000   0.0000   0.0000   0.2731
  10.800   1.3762   0.01914   0.01262  -0.0496  0.0062  1.0000  -5.6422   0.0000   0.0000   0.0000   0.2720
  10.900   1.3794   0.01940   0.01289  -0.0485  0.0060  1.0000  -5.7220   0.0000   0.0000   0.0000   0.2710
  11.000   1.3827   0.01966   0.01317  -0.0474  0.0057  1.0000  -5.8027   0.0000   0.0000   0.0000   0.2700
  11.100   1.3858   0.01993   0.01346  -0.0463  0.0055  1.0000  -5.8830   0.0000   0.0000   0.0000   0.2690
  11.200   1.3884   0.02023   0.01378  -0.0452  0.0053  1.0000  -5.9599   0.0000   0.0000   0.0000   0.2680
  11.300   1.3908   0.02054   0.01411  -0.0441  0.0051  1.0000  -6.0363   0.0000   0.0000   0.0000   0.2669
  11.400   1.3933   0.02086   0.01445  -0.0430  0.0049  1.0000  -6.1139   0.0000   0.0000   0.0000   0.2660
  11.500   1.3959   0.02120   0.01480  -0.0420  0.0048  1.0000  -6.1912   0.0000   0.0000   0.0000   0.2650
  11.600   1.3978   0.02156   0.01518  -0.0409  0.0046  1.0000  -6.2646   0.0000   0.0000   0.0000   0.2640
  11.700   1.3997   0.02194   0.01558  -0.0398  0.0044  1.0000  -6.3371   0.0000   0.0000   0.0000   0.2630
  11.800   1.4018   0.02232   0.01599  -0.0388  0.0043  1.0000  -6.4097   0.0000   0.0000   0.0000   0.2621
  11.900   1.4042   0.02269   0.01638  -0.0378  0.0042  1.0000  -6.4873   0.0000   0.0000   0.0000   0.2612
  12.000   1.4064   0.02308   0.01679  -0.0368  0.0041  1.0000  -6.5638   0.0000   0.0000   0.0000   0.2603
  12.100   1.4088   0.02347   0.01721  -0.0359  0.0041  1.0000  -6.6414   0.0000   0.0000   0.0000   0.2595
  12.200   1.4112   0.02387   0.01763  -0.0350  0.0040  1.0000  -6.7190   0.0000   0.0000   0.0000   0.2586
  12.300   1.4131   0.02430   0.01809  -0.0341  0.0040  1.0000  -6.7940   0.0000   0.0000   0.0000   0.2578
  12.400   1.4150   0.02474   0.01855  -0.0333  0.0039  1.0000  -6.8696   0.0000   0.0000   0.0000   0.2570
  12.500   1.4171   0.02519   0.01902  -0.0324  0.0038  1.0000  -6.9460   0.0000   0.0000   0.0000   0.2562
  12.600   1.4188   0.02567   0.01952  -0.0316  0.0038  1.0000  -7.0198   0.0000   0.0000   0.0000   0.2554
  12.700   1.4205   0.02615   0.02004  -0.0308  0.0037  1.0000  -7.0942   0.0000   0.0000   0.0000   0.2546
  12.800   1.4222   0.02666   0.02057  -0.0300  0.0036  1.0000  -7.1690   0.0000   0.0000   0.0000   0.2539
  12.900   1.4236   0.02719   0.02113  -0.0292  0.0036  1.0000  -7.2414   0.0000   0.0000   0.0000   0.2531
  13.000   1.4251   0.02773   0.02169  -0.0285  0.0035  1.0000  -7.3149   0.0000   0.0000   0.0000   0.2524
  13.100   1.4264   0.02830   0.02229  -0.0277  0.0035  1.0000  -7.3868   0.0000   0.0000   0.0000   0.2517
  13.200   1.4276   0.02889   0.02290  -0.0270  0.0034  1.0000  -7.4584   0.0000   0.0000   0.0000   0.2510
  13.300   1.4288   0.02949   0.02353  -0.0264  0.0034  1.0000  -7.5301   0.0000   0.0000   0.0000   0.2503
  13.400   1.4298   0.03012   0.02419  -0.0257  0.0033  1.0000  -7.6003   0.0000   0.0000   0.0000   0.2497
  13.500   1.4308   0.03075   0.02485  -0.0251  0.0033  1.0000  -7.6710   0.0000   0.0000   0.0000   0.2490
  13.600   1.4316   0.03142   0.02554  -0.0245  0.0032  1.0000  -7.7397   0.0000   0.0000   0.0000   0.2484
  13.700   1.4325   0.03210   0.02625  -0.0239  0.0032  1.0000  -7.8088   0.0000   0.0000   0.0000   0.2478
  13.800   1.4331   0.03281   0.02699  -0.0234  0.0032  1.0000  -7.8760   0.0000   0.0000   0.0000   0.2473
  13.900   1.4337   0.03354   0.02774  -0.0229  0.0031  1.0000  -7.9431   0.0000   0.0000   0.0000   0.2467
  14.000   1.4340   0.03431   0.02854  -0.0224  0.0031  1.0000  -8.0080   0.0000   0.0000   0.0000   0.2462
  14.100   1.4343   0.03509   0.02935  -0.0219  0.0030  1.0000  -8.0721   0.0000   0.0000   0.0000   0.2456
  14.200   1.4345   0.03591   0.03020  -0.0215  0.0030  1.0000  -8.1345   0.0000   0.0000   0.0000   0.2451
  14.300   1.4344   0.03675   0.03108  -0.0211  0.0030  1.0000  -8.1951   0.0000   0.0000   0.0000   0.2447
  14.400   1.4343   0.03763   0.03198  -0.0207  0.0029  1.0000  -8.2544   0.0000   0.0000   0.0000   0.2442
  14.500   1.4340   0.03853   0.03292  -0.0203  0.0029  1.0000  -8.3114   0.0000   0.0000   0.0000   0.2438
  14.600   1.4335   0.03947   0.03389  -0.0200  0.0028  1.0000  -8.3666   0.0000   0.0000   0.0000   0.2433
  14.700   1.4329   0.04044   0.03489  -0.0197  0.0028  1.0000  -8.4198   0.0000   0.0000   0.0000   0.2429
  14.800   1.4320   0.04145   0.03594  -0.0194  0.0028  1.0000  -8.4702   0.0000   0.0000   0.0000   0.2426
  14.900   1.4309   0.04249   0.03702  -0.0192  0.0027  1.0000  -8.5184   0.0000   0.0000   0.0000   0.2422
  15.000   1.4297   0.04357   0.03814  -0.0190  0.0027  1.0000  -8.5643   0.0000   0.0000   0.0000   0.2419


