xflr5 v6.59

 Calculated polar for: SUAV_Foil

 1 1 Reynolds number fixed          Mach number fixed         

 xtrf =   1.000 (top)        1.000 (bottom)
 Mach =   0.050     Re =     0.500 e 6     Ncrit =   5.000

  alpha     CL        CD       CDp       Cm    Top Xtr Bot Xtr   Cpmin    Chinge    XCp    
 ------- -------- --------- --------- -------- ------- ------- -------- --------- ---------
  -3.000   0.0961   0.00957   0.00226  -0.0953  0.6173  0.0989  -1.3313   0.0000   0.0000   0.0000   1.2533
  -2.900   0.1072   0.00953   0.00222  -0.0953  0.6137  0.1030  -1.2813   0.0000   0.0000   0.0000   1.1486
  -2.800   0.1183   0.00951   0.00218  -0.0952  0.6104  0.1074  -1.2327   0.0000   0.0000   0.0000   1.0635
  -2.700   0.1295   0.00946   0.00213  -0.0952  0.6074  0.1118  -1.1910   0.0000   0.0000   0.0000   0.9926
  -2.600   0.1407   0.00942   0.00209  -0.0952  0.6043  0.1170  -1.1496   0.0000   0.0000   0.0000   0.9329
  -2.500   0.1518   0.00938   0.00205  -0.0951  0.6013  0.1223  -1.1087   0.0000   0.0000   0.0000   0.8821
  -2.400   0.1629   0.00935   0.00201  -0.0951  0.5983  0.1285  -1.0683   0.0000   0.0000   0.0000   0.8384
  -2.300   0.1740   0.00931   0.00198  -0.0950  0.5956  0.1350  -1.0282   0.0000   0.0000   0.0000   0.8003
  -2.100   0.1964   0.00922   0.00191  -0.0950  0.5898  0.1504  -0.9488   0.0000   0.0000   0.0000   0.7368
  -2.000   0.2076   0.00918   0.00189  -0.0950  0.5870  0.1587  -0.9098   0.0000   0.0000   0.0000   0.7102
  -1.900   0.2187   0.00914   0.00186  -0.0949  0.5844  0.1680  -0.8726   0.0000   0.0000   0.0000   0.6864
  -1.700   0.2410   0.00905   0.00180  -0.0949  0.5795  0.1896  -0.8023   0.0000   0.0000   0.0000   0.6453
  -1.600   0.2522   0.00900   0.00178  -0.0949  0.5771  0.2018  -0.7687   0.0000   0.0000   0.0000   0.6275
  -1.500   0.2634   0.00895   0.00176  -0.0948  0.5747  0.2146  -0.7371   0.0000   0.0000   0.0000   0.6112
  -1.400   0.2745   0.00890   0.00174  -0.0948  0.5724  0.2283  -0.7058   0.0000   0.0000   0.0000   0.5963
  -1.300   0.2855   0.00886   0.00173  -0.0948  0.5702  0.2427  -0.6748   0.0000   0.0000   0.0000   0.5825
  -1.200   0.2967   0.00882   0.00172  -0.0948  0.5680  0.2571  -0.6440   0.0000   0.0000   0.0000   0.5698
  -1.100   0.3079   0.00877   0.00171  -0.0947  0.5656  0.2714  -0.6350   0.0000   0.0000   0.0000   0.5579
  -1.000   0.3191   0.00874   0.00171  -0.0947  0.5632  0.2856  -0.6425   0.0000   0.0000   0.0000   0.5468
  -0.900   0.3303   0.00871   0.00171  -0.0947  0.5608  0.2994  -0.6500   0.0000   0.0000   0.0000   0.5365
  -0.800   0.3414   0.00869   0.00171  -0.0946  0.5585  0.3125  -0.6574   0.0000   0.0000   0.0000   0.5269
  -0.700   0.3525   0.00868   0.00172  -0.0946  0.5565  0.3249  -0.6649   0.0000   0.0000   0.0000   0.5178
  -0.600   0.3637   0.00866   0.00172  -0.0946  0.5544  0.3365  -0.6724   0.0000   0.0000   0.0000   0.5093
  -0.500   0.3750   0.00865   0.00173  -0.0945  0.5522  0.3468  -0.6802   0.0000   0.0000   0.0000   0.5013
  -0.400   0.3862   0.00864   0.00174  -0.0945  0.5500  0.3559  -0.6882   0.0000   0.0000   0.0000   0.4937
  -0.300   0.3974   0.00864   0.00174  -0.0944  0.5477  0.3641  -0.6963   0.0000   0.0000   0.0000   0.4866
  -0.200   0.4085   0.00864   0.00175  -0.0944  0.5456  0.3720  -0.7045   0.0000   0.0000   0.0000   0.4798
  -0.100   0.4197   0.00865   0.00176  -0.0943  0.5435  0.3794  -0.7126   0.0000   0.0000   0.0000   0.4734
   0.000   0.4309   0.00866   0.00177  -0.0943  0.5415  0.3869  -0.7208   0.0000   0.0000   0.0000   0.4673
   0.100   0.4421   0.00865   0.00178  -0.0943  0.5394  0.3938  -0.7290   0.0000   0.0000   0.0000   0.4616
   0.200   0.4534   0.00865   0.00179  -0.0942  0.5372  0.4006  -0.7373   0.0000   0.0000   0.0000   0.4561
   0.300   0.4646   0.00865   0.00181  -0.0942  0.5350  0.4079  -0.7455   0.0000   0.0000   0.0000   0.4509
   0.400   0.4757   0.00866   0.00182  -0.0941  0.5328  0.4148  -0.7539   0.0000   0.0000   0.0000   0.4459
   0.500   0.4868   0.00868   0.00184  -0.0940  0.5307  0.4222  -0.7628   0.0000   0.0000   0.0000   0.4411
   0.600   0.4979   0.00869   0.00185  -0.0940  0.5287  0.4291  -0.7717   0.0000   0.0000   0.0000   0.4366
   0.800   0.5203   0.00869   0.00189  -0.0939  0.5241  0.4424  -0.7896   0.0000   0.0000   0.0000   0.4281
   1.000   0.5425   0.00871   0.00193  -0.0938  0.5193  0.4558  -0.8103   0.0000   0.0000   0.0000   0.4203
   1.100   0.5536   0.00873   0.00195  -0.0937  0.5171  0.4626  -0.8230   0.0000   0.0000   0.0000   0.4166
   1.200   0.5646   0.00874   0.00197  -0.0936  0.5150  0.4694  -0.8372   0.0000   0.0000   0.0000   0.4131
   1.300   0.5758   0.00874   0.00199  -0.0936  0.5126  0.4758  -0.8515   0.0000   0.0000   0.0000   0.4097
   1.400   0.5869   0.00875   0.00202  -0.0935  0.5098  0.4825  -0.8658   0.0000   0.0000   0.0000   0.4064
   1.500   0.5980   0.00876   0.00204  -0.0934  0.5069  0.4889  -0.8815   0.0000   0.0000   0.0000   0.4032
   1.600   0.6089   0.00878   0.00206  -0.0934  0.5039  0.4949  -0.8974   0.0000   0.0000   0.0000   0.4002
   1.700   0.6198   0.00880   0.00208  -0.0933  0.5009  0.5011  -0.9134   0.0000   0.0000   0.0000   0.3972
   1.800   0.6309   0.00881   0.00211  -0.0932  0.4974  0.5072  -0.9295   0.0000   0.0000   0.0000   0.3944
   1.900   0.6419   0.00882   0.00213  -0.0931  0.4936  0.5137  -0.9457   0.0000   0.0000   0.0000   0.3916
   2.000   0.6527   0.00885   0.00216  -0.0930  0.4901  0.5198  -0.9627   0.0000   0.0000   0.0000   0.3890
   2.100   0.6636   0.00887   0.00218  -0.0929  0.4868  0.5263  -0.9798   0.0000   0.0000   0.0000   0.3864
   2.200   0.6747   0.00888   0.00221  -0.0928  0.4831  0.5324  -0.9971   0.0000   0.0000   0.0000   0.3839
   2.300   0.6855   0.00890   0.00224  -0.0928  0.4793  0.5388  -1.0151   0.0000   0.0000   0.0000   0.3815
   2.500   0.7072   0.00894   0.00229  -0.0925  0.4727  0.5520  -1.0517   0.0000   0.0000   0.0000   0.3769
   2.600   0.7182   0.00896   0.00233  -0.0925  0.4693  0.5592  -1.0703   0.0000   0.0000   0.0000   0.3746
   2.700   0.7291   0.00897   0.00236  -0.0924  0.4658  0.5664  -1.0887   0.0000   0.0000   0.0000   0.3725
   2.800   0.7398   0.00900   0.00239  -0.0923  0.4626  0.5743  -1.1072   0.0000   0.0000   0.0000   0.3704
   2.900   0.7506   0.00901   0.00243  -0.0921  0.4596  0.5821  -1.1257   0.0000   0.0000   0.0000   0.3684
   3.000   0.7615   0.00902   0.00247  -0.0921  0.4561  0.5909  -1.1445   0.0000   0.0000   0.0000   0.3664
   3.100   0.7723   0.00903   0.00250  -0.0919  0.4526  0.6003  -1.1631   0.0000   0.0000   0.0000   0.3645
   3.300   0.7935   0.00906   0.00259  -0.0917  0.4466  0.6229  -1.2004   0.0000   0.0000   0.0000   0.3608
   3.400   0.8043   0.00905   0.00263  -0.0916  0.4434  0.6370  -1.2199   0.0000   0.0000   0.0000   0.3590
   3.500   0.8148   0.00904   0.00267  -0.0914  0.4400  0.6557  -1.2397   0.0000   0.0000   0.0000   0.3572
   3.600   0.8249   0.00901   0.00272  -0.0912  0.4364  0.6832  -1.2592   0.0000   0.0000   0.0000   0.3555
   3.700   0.8332   0.00884   0.00277  -0.0906  0.4333  0.7579  -1.2771   0.0000   0.0000   0.0000   0.3535
   3.800   0.8485   0.00850   0.00280  -0.0912  0.4290  1.0000  -1.3022   0.0000   0.0000   0.0000   0.3522
   3.900   0.8593   0.00856   0.00285  -0.0910  0.4250  1.0000  -1.3225   0.0000   0.0000   0.0000   0.3506
   4.000   0.8698   0.00863   0.00290  -0.0909  0.4211  1.0000  -1.3428   0.0000   0.0000   0.0000   0.3490
   4.100   0.8805   0.00868   0.00294  -0.0908  0.4172  1.0000  -1.3632   0.0000   0.0000   0.0000   0.3475
   4.200   0.8911   0.00874   0.00299  -0.0906  0.4126  1.0000  -1.3849   0.0000   0.0000   0.0000   0.3460
   4.300   0.9016   0.00881   0.00304  -0.0905  0.4080  1.0000  -1.4065   0.0000   0.0000   0.0000   0.3446
   4.400   0.9121   0.00888   0.00310  -0.0903  0.4037  1.0000  -1.4282   0.0000   0.0000   0.0000   0.3432
   4.500   0.9227   0.00894   0.00315  -0.0902  0.3990  1.0000  -1.4501   0.0000   0.0000   0.0000   0.3418
   4.600   0.9331   0.00901   0.00321  -0.0900  0.3942  1.0000  -1.4718   0.0000   0.0000   0.0000   0.3404
   4.700   0.9435   0.00909   0.00327  -0.0899  0.3896  1.0000  -1.4937   0.0000   0.0000   0.0000   0.3390
   4.800   0.9540   0.00916   0.00333  -0.0897  0.3841  1.0000  -1.5157   0.0000   0.0000   0.0000   0.3377
   5.000   0.9744   0.00933   0.00346  -0.0893  0.3718  1.0000  -1.5593   0.0000   0.0000   0.0000   0.3351
   5.100   0.9842   0.00944   0.00354  -0.0891  0.3647  1.0000  -1.5809   0.0000   0.0000   0.0000   0.3339
   5.200   0.9944   0.00953   0.00361  -0.0889  0.3573  1.0000  -1.6028   0.0000   0.0000   0.0000   0.3326
   5.300   1.0041   0.00965   0.00369  -0.0886  0.3494  1.0000  -1.6257   0.0000   0.0000   0.0000   0.3314
   5.400   1.0140   0.00976   0.00378  -0.0884  0.3410  1.0000  -1.6489   0.0000   0.0000   0.0000   0.3302
   5.500   1.0237   0.00988   0.00387  -0.0881  0.3329  1.0000  -1.6718   0.0000   0.0000   0.0000   0.3290
   5.600   1.0332   0.01001   0.00396  -0.0878  0.3237  1.0000  -1.6946   0.0000   0.0000   0.0000   0.3278
   5.700   1.0426   0.01015   0.00406  -0.0875  0.3142  1.0000  -1.7183   0.0000   0.0000   0.0000   0.3266
   5.800   1.0518   0.01031   0.00418  -0.0871  0.3043  1.0000  -1.7422   0.0000   0.0000   0.0000   0.3254
   5.900   1.0608   0.01048   0.00430  -0.0868  0.2941  1.0000  -1.7660   0.0000   0.0000   0.0000   0.3243
   6.000   1.0699   0.01064   0.00442  -0.0864  0.2839  1.0000  -1.7901   0.0000   0.0000   0.0000   0.3231
   6.100   1.0789   0.01081   0.00454  -0.0861  0.2746  1.0000  -1.8140   0.0000   0.0000   0.0000   0.3220
   6.200   1.0877   0.01099   0.00468  -0.0857  0.2659  1.0000  -1.8378   0.0000   0.0000   0.0000   0.3209
   6.300   1.0969   0.01114   0.00480  -0.0853  0.2579  1.0000  -1.8622   0.0000   0.0000   0.0000   0.3198
   6.400   1.1058   0.01131   0.00494  -0.0849  0.2502  1.0000  -1.9381   0.0000   0.0000   0.0000   0.3187
   6.500   1.1148   0.01146   0.00507  -0.0846  0.2424  1.0000  -2.0176   0.0000   0.0000   0.0000   0.3176
   6.600   1.1235   0.01164   0.00521  -0.0842  0.2352  1.0000  -2.0969   0.0000   0.0000   0.0000   0.3166
   6.700   1.1324   0.01180   0.00535  -0.0838  0.2278  1.0000  -2.1776   0.0000   0.0000   0.0000   0.3155
   6.800   1.1410   0.01198   0.00549  -0.0834  0.2212  1.0000  -2.2586   0.0000   0.0000   0.0000   0.3145
   6.900   1.1498   0.01213   0.00563  -0.0830  0.2147  1.0000  -2.3411   0.0000   0.0000   0.0000   0.3134
   7.000   1.1584   0.01231   0.00578  -0.0825  0.2089  1.0000  -2.4234   0.0000   0.0000   0.0000   0.3124
   7.100   1.1673   0.01245   0.00592  -0.0821  0.2034  1.0000  -2.5081   0.0000   0.0000   0.0000   0.3114
   7.200   1.1756   0.01263   0.00607  -0.0817  0.1980  1.0000  -2.5917   0.0000   0.0000   0.0000   0.3104
   7.300   1.1844   0.01278   0.00621  -0.0813  0.1933  1.0000  -2.6779   0.0000   0.0000   0.0000   0.3094
   7.400   1.1930   0.01293   0.00636  -0.0808  0.1883  1.0000  -2.7642   0.0000   0.0000   0.0000   0.3084
   7.600   1.2099   0.01325   0.00665  -0.0799  0.1800  1.0000  -2.9385   0.0000   0.0000   0.0000   0.3064
   7.700   1.2183   0.01340   0.00680  -0.0795  0.1756  1.0000  -3.0266   0.0000   0.0000   0.0000   0.3055
   7.800   1.2261   0.01359   0.00697  -0.0789  0.1714  1.0000  -3.1129   0.0000   0.0000   0.0000   0.3045
   7.900   1.2345   0.01374   0.00711  -0.0784  0.1672  1.0000  -3.2028   0.0000   0.0000   0.0000   0.3035
   8.000   1.2424   0.01391   0.00728  -0.0779  0.1625  1.0000  -3.2913   0.0000   0.0000   0.0000   0.3026
   8.100   1.2496   0.01411   0.00746  -0.0772  0.1579  1.0000  -3.3776   0.0000   0.0000   0.0000   0.3015
   8.200   1.2575   0.01427   0.00762  -0.0767  0.1529  1.0000  -3.4679   0.0000   0.0000   0.0000   0.3006
   8.300   1.2641   0.01450   0.00781  -0.0760  0.1469  1.0000  -3.5525   0.0000   0.0000   0.0000   0.2996
   8.400   1.2712   0.01470   0.00798  -0.0753  0.1406  1.0000  -3.6406   0.0000   0.0000   0.0000   0.2986
   8.500   1.2770   0.01495   0.00819  -0.0745  0.1338  1.0000  -3.7228   0.0000   0.0000   0.0000   0.2975
   8.600   1.2835   0.01516   0.00837  -0.0737  0.1266  1.0000  -3.8094   0.0000   0.0000   0.0000   0.2965
   8.700   1.2893   0.01540   0.00857  -0.0728  0.1204  1.0000  -3.8929   0.0000   0.0000   0.0000   0.2954
   8.800   1.2953   0.01562   0.00876  -0.0720  0.1148  1.0000  -3.9781   0.0000   0.0000   0.0000   0.2944
   8.900   1.3012   0.01583   0.00895  -0.0712  0.1106  1.0000  -4.0633   0.0000   0.0000   0.0000   0.2933
   9.000   1.3074   0.01601   0.00913  -0.0703  0.1061  1.0000  -4.1507   0.0000   0.0000   0.0000   0.2923
   9.100   1.3124   0.01624   0.00934  -0.0693  0.1018  1.0000  -4.2326   0.0000   0.0000   0.0000   0.2912
   9.200   1.3176   0.01642   0.00952  -0.0683  0.0977  1.0000  -4.3161   0.0000   0.0000   0.0000   0.2901
   9.300   1.3207   0.01663   0.00972  -0.0670  0.0933  1.0000  -4.3891   0.0000   0.0000   0.0000   0.2888
   9.400   1.3236   0.01684   0.00991  -0.0655  0.0896  1.0000  -4.4615   0.0000   0.0000   0.0000   0.2875
   9.500   1.3266   0.01704   0.01011  -0.0641  0.0852  1.0000  -4.5343   0.0000   0.0000   0.0000   0.2862
   9.600   1.3290   0.01729   0.01033  -0.0627  0.0810  1.0000  -4.6047   0.0000   0.0000   0.0000   0.2849
   9.700   1.3320   0.01752   0.01056  -0.0614  0.0762  1.0000  -4.6779   0.0000   0.0000   0.0000   0.2837
   9.800   1.3345   0.01779   0.01080  -0.0600  0.0717  1.0000  -4.7488   0.0000   0.0000   0.0000   0.2824
   9.900   1.3367   0.01808   0.01107  -0.0586  0.0666  1.0000  -4.8187   0.0000   0.0000   0.0000   0.2811
  10.000   1.3382   0.01838   0.01136  -0.0571  0.0616  1.0000  -4.8844   0.0000   0.0000   0.0000   0.2799
  10.100   1.3386   0.01873   0.01168  -0.0555  0.0565  1.0000  -4.9442   0.0000   0.0000   0.0000   0.2785
  10.200   1.3390   0.01909   0.01202  -0.0539  0.0511  1.0000  -5.0038   0.0000   0.0000   0.0000   0.2772
  10.300   1.3393   0.01948   0.01238  -0.0524  0.0459  1.0000  -5.0628   0.0000   0.0000   0.0000   0.2759
  10.400   1.3391   0.01988   0.01277  -0.0508  0.0411  1.0000  -5.1190   0.0000   0.0000   0.0000   0.2745
  10.500   1.3383   0.02032   0.01320  -0.0492  0.0363  1.0000  -5.1719   0.0000   0.0000   0.0000   0.2732
  10.600   1.3376   0.02077   0.01363  -0.0476  0.0316  1.0000  -5.2250   0.0000   0.0000   0.0000   0.2719
  10.700   1.3370   0.02123   0.01408  -0.0461  0.0276  1.0000  -5.2783   0.0000   0.0000   0.0000   0.2707
  10.800   1.3365   0.02170   0.01453  -0.0447  0.0242  1.0000  -5.3323   0.0000   0.0000   0.0000   0.2695
  10.900   1.3363   0.02217   0.01500  -0.0433  0.0211  1.0000  -5.3874   0.0000   0.0000   0.0000   0.2683
  11.100   1.3361   0.02314   0.01598  -0.0407  0.0164  1.0000  -5.4997   0.0000   0.0000   0.0000   0.2661
  11.200   1.3362   0.02364   0.01649  -0.0395  0.0148  1.0000  -5.5569   0.0000   0.0000   0.0000   0.2650
  11.300   1.3371   0.02411   0.01697  -0.0384  0.0135  1.0000  -5.6186   0.0000   0.0000   0.0000   0.2640
  11.400   1.3378   0.02461   0.01749  -0.0373  0.0124  1.0000  -5.6789   0.0000   0.0000   0.0000   0.2630
  11.500   1.3382   0.02513   0.01802  -0.0363  0.0115  1.0000  -5.7381   0.0000   0.0000   0.0000   0.2621
  11.600   1.3395   0.02562   0.01853  -0.0353  0.0108  1.0000  -5.8018   0.0000   0.0000   0.0000   0.2612
  11.700   1.3407   0.02612   0.01906  -0.0344  0.0101  1.0000  -5.8653   0.0000   0.0000   0.0000   0.2603
  11.800   1.3417   0.02665   0.01961  -0.0335  0.0095  1.0000  -5.9279   0.0000   0.0000   0.0000   0.2594
  11.900   1.3422   0.02722   0.02020  -0.0326  0.0090  1.0000  -5.9879   0.0000   0.0000   0.0000   0.2586
  12.000   1.3427   0.02781   0.02082  -0.0317  0.0086  1.0000  -6.0468   0.0000   0.0000   0.0000   0.2577
  12.100   1.3443   0.02835   0.02139  -0.0309  0.0083  1.0000  -6.1125   0.0000   0.0000   0.0000   0.2570
  12.200   1.3457   0.02890   0.02198  -0.0302  0.0080  1.0000  -6.1773   0.0000   0.0000   0.0000   0.2562
  12.300   1.3470   0.02948   0.02259  -0.0294  0.0077  1.0000  -6.2413   0.0000   0.0000   0.0000   0.2555
  12.400   1.3480   0.03010   0.02324  -0.0287  0.0075  1.0000  -6.3036   0.0000   0.0000   0.0000   0.2548
  12.500   1.3490   0.03073   0.02390  -0.0281  0.0073  1.0000  -6.3657   0.0000   0.0000   0.0000   0.2541
  12.600   1.3497   0.03139   0.02459  -0.0274  0.0070  1.0000  -6.4262   0.0000   0.0000   0.0000   0.2534
  12.700   1.3504   0.03208   0.02530  -0.0268  0.0069  1.0000  -6.4864   0.0000   0.0000   0.0000   0.2527
  12.800   1.3508   0.03279   0.02605  -0.0262  0.0067  1.0000  -6.5448   0.0000   0.0000   0.0000   0.2521
  12.900   1.3511   0.03353   0.02682  -0.0256  0.0065  1.0000  -6.6020   0.0000   0.0000   0.0000   0.2515
  13.000   1.3510   0.03432   0.02764  -0.0250  0.0064  1.0000  -6.6561   0.0000   0.0000   0.0000   0.2509
  13.100   1.3508   0.03513   0.02849  -0.0245  0.0062  1.0000  -6.7076   0.0000   0.0000   0.0000   0.2503
  13.200   1.3517   0.03588   0.02927  -0.0240  0.0061  1.0000  -6.7683   0.0000   0.0000   0.0000   0.2498
  13.300   1.3525   0.03664   0.03007  -0.0236  0.0060  1.0000  -6.8279   0.0000   0.0000   0.0000   0.2493
  13.400   1.3531   0.03744   0.03090  -0.0232  0.0060  1.0000  -6.8869   0.0000   0.0000   0.0000   0.2488
  13.500   1.3537   0.03826   0.03176  -0.0228  0.0059  1.0000  -6.9447   0.0000   0.0000   0.0000   0.2483
  13.600   1.3541   0.03910   0.03264  -0.0225  0.0058  1.0000  -7.0020   0.0000   0.0000   0.0000   0.2479
  13.700   1.3544   0.03996   0.03354  -0.0221  0.0057  1.0000  -7.0583   0.0000   0.0000   0.0000   0.2474
  13.800   1.3546   0.04085   0.03447  -0.0218  0.0056  1.0000  -7.1138   0.0000   0.0000   0.0000   0.2470
  13.900   1.3547   0.04177   0.03542  -0.0216  0.0055  1.0000  -7.1687   0.0000   0.0000   0.0000   0.2466
  14.000   1.3547   0.04270   0.03640  -0.0213  0.0055  1.0000  -7.2229   0.0000   0.0000   0.0000   0.2463
  14.100   1.3547   0.04366   0.03740  -0.0211  0.0054  1.0000  -7.2765   0.0000   0.0000   0.0000   0.2459
  14.200   1.3545   0.04465   0.03842  -0.0209  0.0053  1.0000  -7.3297   0.0000   0.0000   0.0000   0.2456
  14.300   1.3543   0.04566   0.03947  -0.0207  0.0053  1.0000  -7.3818   0.0000   0.0000   0.0000   0.2453
  14.400   1.3539   0.04669   0.04054  -0.0206  0.0052  1.0000  -7.4336   0.0000   0.0000   0.0000   0.2450
  14.500   1.3535   0.04776   0.04165  -0.0205  0.0051  1.0000  -7.4841   0.0000   0.0000   0.0000   0.2447
  14.600   1.3529   0.04885   0.04277  -0.0204  0.0051  1.0000  -7.5340   0.0000   0.0000   0.0000   0.2445
  14.700   1.3522   0.04996   0.04393  -0.0204  0.0050  1.0000  -7.5828   0.0000   0.0000   0.0000   0.2442
  14.800   1.3514   0.05111   0.04512  -0.0203  0.0050  1.0000  -7.6307   0.0000   0.0000   0.0000   0.2440
  14.900   1.3506   0.05228   0.04632  -0.0203  0.0049  1.0000  -7.6779   0.0000   0.0000   0.0000   0.2438
  15.000   1.3495   0.05349   0.04757  -0.0204  0.0049  1.0000  -7.7233   0.0000   0.0000   0.0000   0.2437


