xflr5 v6.59

 Calculated polar for: SUAV_Foil

 1 1 Reynolds number fixed          Mach number fixed         

 xtrf =   1.000 (top)        1.000 (bottom)
 Mach =   0.050     Re =     0.080 e 6     Ncrit =   5.000

  alpha     CL        CD       CDp       Cm    Top Xtr Bot Xtr   Cpmin    Chinge    XCp    
 ------- -------- --------- --------- -------- ------- ------- -------- --------- ---------
  -3.000   0.0695   0.01769   0.00836  -0.0957  0.8244  0.2035  -1.3368   0.0000   0.0000   0.0000   1.6462
  -2.900   0.0830   0.01748   0.00817  -0.0961  0.8206  0.2166  -1.2862   0.0000   0.0000   0.0000   1.4219
  -2.800   0.0946   0.01731   0.00804  -0.0961  0.8154  0.2305  -1.2425   0.0000   0.0000   0.0000   1.2785
  -2.700   0.1050   0.01717   0.00795  -0.0960  0.8092  0.2450  -1.2014   0.0000   0.0000   0.0000   1.1748
  -2.600   0.1167   0.01703   0.00785  -0.0960  0.8039  0.2624  -1.1595   0.0000   0.0000   0.0000   1.0820
  -2.500   0.1292   0.01690   0.00774  -0.0962  0.7995  0.2818  -1.1180   0.0000   0.0000   0.0000   1.0023
  -2.400   0.1423   0.01678   0.00764  -0.0964  0.7957  0.3023  -1.0754   0.0000   0.0000   0.0000   0.9341
  -2.300   0.1524   0.01673   0.00763  -0.0962  0.7897  0.3202  -1.0385   0.0000   0.0000   0.0000   0.8867
  -2.200   0.1632   0.01669   0.00760  -0.0960  0.7841  0.3387  -1.0006   0.0000   0.0000   0.0000   0.8433
  -2.100   0.1748   0.01664   0.00756  -0.0959  0.7794  0.3559  -0.9614   0.0000   0.0000   0.0000   0.8034
  -2.000   0.1870   0.01660   0.00749  -0.0959  0.7753  0.3730  -0.9213   0.0000   0.0000   0.0000   0.7670
  -1.900   0.1984   0.01658   0.00745  -0.0958  0.7708  0.3884  -0.8855   0.0000   0.0000   0.0000   0.7364
  -1.800   0.2087   0.01658   0.00746  -0.0956  0.7651  0.4022  -0.8524   0.0000   0.0000   0.0000   0.7111
  -1.700   0.2197   0.01657   0.00743  -0.0954  0.7602  0.4159  -0.8182   0.0000   0.0000   0.0000   0.6869
  -1.600   0.2313   0.01655   0.00738  -0.0953  0.7561  0.4292  -0.7832   0.0000   0.0000   0.0000   0.6644
  -1.500   0.2434   0.01653   0.00732  -0.0953  0.7526  0.4421  -0.7501   0.0000   0.0000   0.0000   0.6434
  -1.400   0.2535   0.01654   0.00733  -0.0950  0.7472  0.4537  -0.7208   0.0000   0.0000   0.0000   0.6265
  -1.300   0.2642   0.01655   0.00732  -0.0948  0.7424  0.4653  -0.6906   0.0000   0.0000   0.0000   0.6103
  -1.200   0.2755   0.01654   0.00729  -0.0947  0.7382  0.4768  -0.6599   0.0000   0.0000   0.0000   0.5948
  -1.100   0.2872   0.01653   0.00723  -0.0946  0.7346  0.4884  -0.6287   0.0000   0.0000   0.0000   0.5803
  -1.000   0.2981   0.01653   0.00721  -0.0944  0.7304  0.4987  -0.6162   0.0000   0.0000   0.0000   0.5674
  -0.900   0.3085   0.01653   0.00722  -0.0942  0.7256  0.5088  -0.6232   0.0000   0.0000   0.0000   0.5558
  -0.800   0.3195   0.01653   0.00720  -0.0941  0.7215  0.5194  -0.6306   0.0000   0.0000   0.0000   0.5446
  -0.700   0.3310   0.01652   0.00716  -0.0940  0.7179  0.5304  -0.6385   0.0000   0.0000   0.0000   0.5339
  -0.600   0.3425   0.01650   0.00711  -0.0938  0.7148  0.5405  -0.6467   0.0000   0.0000   0.0000   0.5238
  -0.500   0.3527   0.01651   0.00713  -0.0936  0.7102  0.5502  -0.6538   0.0000   0.0000   0.0000   0.5151
  -0.400   0.3634   0.01652   0.00713  -0.0934  0.7061  0.5608  -0.6613   0.0000   0.0000   0.0000   0.5066
  -0.300   0.3744   0.01649   0.00710  -0.0933  0.7025  0.5704  -0.6691   0.0000   0.0000   0.0000   0.4985
  -0.200   0.3857   0.01647   0.00705  -0.0931  0.6994  0.5805  -0.6772   0.0000   0.0000   0.0000   0.4907
  -0.100   0.3967   0.01646   0.00703  -0.0930  0.6959  0.5910  -0.6849   0.0000   0.0000   0.0000   0.4835
   0.000   0.4069   0.01645   0.00705  -0.0928  0.6918  0.6005  -0.6923   0.0000   0.0000   0.0000   0.4769
   0.100   0.4177   0.01644   0.00704  -0.0926  0.6882  0.6112  -0.7006   0.0000   0.0000   0.0000   0.4705
   0.200   0.4286   0.01641   0.00702  -0.0924  0.6850  0.6215  -0.7092   0.0000   0.0000   0.0000   0.4643
   0.300   0.4399   0.01637   0.00697  -0.0923  0.6822  0.6325  -0.7180   0.0000   0.0000   0.0000   0.4583
   0.400   0.4502   0.01636   0.00699  -0.0920  0.6786  0.6441  -0.7260   0.0000   0.0000   0.0000   0.4529
   0.500   0.4604   0.01633   0.00701  -0.0918  0.6749  0.6561  -0.7340   0.0000   0.0000   0.0000   0.4477
   0.600   0.4709   0.01630   0.00701  -0.0915  0.6717  0.6698  -0.7426   0.0000   0.0000   0.0000   0.4426
   0.700   0.4815   0.01625   0.00699  -0.0913  0.6688  0.6852  -0.7514   0.0000   0.0000   0.0000   0.4376
   0.800   0.4921   0.01617   0.00696  -0.0909  0.6663  0.7035  -0.7614   0.0000   0.0000   0.0000   0.4328
   0.900   0.5014   0.01611   0.00700  -0.0905  0.6627  0.7266  -0.7709   0.0000   0.0000   0.0000   0.4283
   1.000   0.5109   0.01599   0.00703  -0.0899  0.6594  0.7616  -0.7808   0.0000   0.0000   0.0000   0.4238
   1.100   0.5351   0.01567   0.00696  -0.0921  0.6560  0.9478  -0.8015   0.0000   0.0000   0.0000   0.4198
   1.200   0.5466   0.01575   0.00695  -0.0922  0.6533  1.0000  -0.8153   0.0000   0.0000   0.0000   0.4162
   1.300   0.5583   0.01583   0.00695  -0.0922  0.6506  1.0000  -0.8297   0.0000   0.0000   0.0000   0.4127
   1.400   0.5688   0.01595   0.00704  -0.0922  0.6470  1.0000  -0.8430   0.0000   0.0000   0.0000   0.4094
   1.500   0.5797   0.01605   0.00709  -0.0922  0.6437  1.0000  -0.8568   0.0000   0.0000   0.0000   0.4062
   1.600   0.5909   0.01614   0.00712  -0.0922  0.6409  1.0000  -0.8720   0.0000   0.0000   0.0000   0.4031
   1.700   0.6025   0.01622   0.00714  -0.0922  0.6384  1.0000  -0.8881   0.0000   0.0000   0.0000   0.4000
   1.800   0.6134   0.01632   0.00720  -0.0921  0.6355  1.0000  -0.9038   0.0000   0.0000   0.0000   0.3971
   1.900   0.6238   0.01644   0.00729  -0.0920  0.6320  1.0000  -0.9189   0.0000   0.0000   0.0000   0.3944
   2.000   0.6346   0.01654   0.00736  -0.0919  0.6289  1.0000  -0.9344   0.0000   0.0000   0.0000   0.3916
   2.100   0.6457   0.01664   0.00742  -0.0919  0.6262  1.0000  -0.9506   0.0000   0.0000   0.0000   0.3890
   2.200   0.6571   0.01673   0.00745  -0.0918  0.6238  1.0000  -0.9679   0.0000   0.0000   0.0000   0.3863
   2.300   0.6674   0.01685   0.00756  -0.0917  0.6205  1.0000  -0.9841   0.0000   0.0000   0.0000   0.3839
   2.400   0.6777   0.01697   0.00766  -0.0916  0.6172  1.0000  -1.0003   0.0000   0.0000   0.0000   0.3815
   2.500   0.6885   0.01707   0.00774  -0.0914  0.6142  1.0000  -1.0171   0.0000   0.0000   0.0000   0.3791
   2.600   0.6996   0.01717   0.00779  -0.0914  0.6116  1.0000  -1.0346   0.0000   0.0000   0.0000   0.3768
   2.700   0.7107   0.01727   0.00786  -0.0913  0.6090  1.0000  -1.0530   0.0000   0.0000   0.0000   0.3745
   2.800   0.7205   0.01741   0.00801  -0.0911  0.6053  1.0000  -1.0698   0.0000   0.0000   0.0000   0.3724
   2.900   0.7308   0.01752   0.00811  -0.0909  0.6020  1.0000  -1.0875   0.0000   0.0000   0.0000   0.3703
   3.000   0.7417   0.01762   0.00819  -0.0908  0.5991  1.0000  -1.1058   0.0000   0.0000   0.0000   0.3682
   3.100   0.7530   0.01771   0.00823  -0.0907  0.5966  1.0000  -1.1247   0.0000   0.0000   0.0000   0.3662
   3.200   0.7626   0.01785   0.00839  -0.0904  0.5929  1.0000  -1.1417   0.0000   0.0000   0.0000   0.3642
   3.300   0.7726   0.01797   0.00851  -0.0902  0.5893  1.0000  -1.1592   0.0000   0.0000   0.0000   0.3623
   3.400   0.7833   0.01807   0.00860  -0.0901  0.5861  1.0000  -1.1777   0.0000   0.0000   0.0000   0.3604
   3.500   0.7945   0.01816   0.00864  -0.0899  0.5833  1.0000  -1.1969   0.0000   0.0000   0.0000   0.3585
   3.600   0.8038   0.01829   0.00881  -0.0896  0.5791  1.0000  -1.2140   0.0000   0.0000   0.0000   0.3567
   3.700   0.8137   0.01841   0.00892  -0.0894  0.5752  1.0000  -1.2328   0.0000   0.0000   0.0000   0.3549
   3.800   0.8244   0.01849   0.00898  -0.0892  0.5717  1.0000  -1.2528   0.0000   0.0000   0.0000   0.3532
   3.900   0.8349   0.01858   0.00905  -0.0889  0.5682  1.0000  -1.2726   0.0000   0.0000   0.0000   0.3515
   4.000   0.8440   0.01871   0.00922  -0.0886  0.5636  1.0000  -1.2906   0.0000   0.0000   0.0000   0.3498
   4.100   0.8541   0.01880   0.00931  -0.0883  0.5597  1.0000  -1.3102   0.0000   0.0000   0.0000   0.3481
   4.200   0.8652   0.01887   0.00933  -0.0881  0.5564  1.0000  -1.3311   0.0000   0.0000   0.0000   0.3465
   4.300   0.8739   0.01900   0.00951  -0.0877  0.5516  1.0000  -1.3489   0.0000   0.0000   0.0000   0.3449
   4.400   0.8837   0.01910   0.00962  -0.0874  0.5474  1.0000  -1.3683   0.0000   0.0000   0.0000   0.3433
   4.500   0.8944   0.01917   0.00966  -0.0872  0.5438  1.0000  -1.3902   0.0000   0.0000   0.0000   0.3418
   4.600   0.9036   0.01928   0.00981  -0.0868  0.5394  1.0000  -1.4100   0.0000   0.0000   0.0000   0.3403
   4.700   0.9128   0.01939   0.00994  -0.0865  0.5348  1.0000  -1.4300   0.0000   0.0000   0.0000   0.3388
   4.800   0.9232   0.01946   0.00999  -0.0862  0.5309  1.0000  -1.4517   0.0000   0.0000   0.0000   0.3373
   4.900   0.9328   0.01956   0.01012  -0.0858  0.5267  1.0000  -1.4722   0.0000   0.0000   0.0000   0.3359
   5.000   0.9417   0.01968   0.01028  -0.0854  0.5220  1.0000  -1.4919   0.0000   0.0000   0.0000   0.3345
   5.100   0.9518   0.01976   0.01035  -0.0851  0.5180  1.0000  -1.5134   0.0000   0.0000   0.0000   0.3331
   5.200   0.9616   0.01985   0.01045  -0.0848  0.5139  1.0000  -1.5345   0.0000   0.0000   0.0000   0.3317
   5.300   0.9701   0.01997   0.01063  -0.0843  0.5089  1.0000  -1.5540   0.0000   0.0000   0.0000   0.3303
   5.400   0.9799   0.02005   0.01071  -0.0840  0.5046  1.0000  -1.5763   0.0000   0.0000   0.0000   0.3290
   5.500   0.9896   0.02014   0.01080  -0.0836  0.5004  1.0000  -1.5989   0.0000   0.0000   0.0000   0.3277
   5.600   0.9979   0.02026   0.01098  -0.0832  0.4952  1.0000  -1.6195   0.0000   0.0000   0.0000   0.3264
   5.700   1.0076   0.02034   0.01108  -0.0828  0.4908  1.0000  -1.6423   0.0000   0.0000   0.0000   0.3251
   5.800   1.0168   0.02044   0.01120  -0.0824  0.4861  1.0000  -1.6644   0.0000   0.0000   0.0000   0.3238
   5.900   1.0251   0.02056   0.01138  -0.0819  0.4808  1.0000  -1.6859   0.0000   0.0000   0.0000   0.3226
   6.000   1.0348   0.02063   0.01144  -0.0815  0.4762  1.0000  -1.7103   0.0000   0.0000   0.0000   0.3213
   6.100   1.0431   0.02075   0.01161  -0.0810  0.4709  1.0000  -1.7328   0.0000   0.0000   0.0000   0.3201
   6.200   1.0517   0.02086   0.01176  -0.0805  0.4655  1.0000  -1.7557   0.0000   0.0000   0.0000   0.3189
   6.300   1.0613   0.02092   0.01181  -0.0801  0.4609  1.0000  -1.7804   0.0000   0.0000   0.0000   0.3177
   6.400   1.0688   0.02108   0.01204  -0.0795  0.4547  1.0000  -1.8017   0.0000   0.0000   0.0000   0.3164
   6.500   1.0777   0.02117   0.01215  -0.0790  0.4494  1.0000  -1.8254   0.0000   0.0000   0.0000   0.3153
   6.600   1.0858   0.02129   0.01232  -0.0784  0.4435  1.0000  -1.8486   0.0000   0.0000   0.0000   0.3141
   6.700   1.0939   0.02141   0.01247  -0.0778  0.4374  1.0000  -1.9078   0.0000   0.0000   0.0000   0.3129
   6.800   1.1022   0.02151   0.01259  -0.0773  0.4315  1.0000  -1.9765   0.0000   0.0000   0.0000   0.3117
   6.900   1.1097   0.02165   0.01278  -0.0766  0.4246  1.0000  -2.0424   0.0000   0.0000   0.0000   0.3105
   7.000   1.1179   0.02176   0.01288  -0.0760  0.4185  1.0000  -2.1122   0.0000   0.0000   0.0000   0.3094
   7.100   1.1251   0.02191   0.01309  -0.0754  0.4112  1.0000  -2.1781   0.0000   0.0000   0.0000   0.3082
   7.200   1.1330   0.02203   0.01321  -0.0747  0.4048  1.0000  -2.2478   0.0000   0.0000   0.0000   0.3070
   7.300   1.1398   0.02219   0.01342  -0.0740  0.3971  1.0000  -2.3139   0.0000   0.0000   0.0000   0.3059
   7.400   1.1471   0.02233   0.01359  -0.0733  0.3899  1.0000  -2.3825   0.0000   0.0000   0.0000   0.3047
   7.500   1.1537   0.02250   0.01378  -0.0725  0.3820  1.0000  -2.4491   0.0000   0.0000   0.0000   0.3035
   7.600   1.1604   0.02267   0.01396  -0.0717  0.3741  1.0000  -2.5164   0.0000   0.0000   0.0000   0.3024
   7.700   1.1668   0.02285   0.01414  -0.0709  0.3662  1.0000  -2.5870   0.0000   0.0000   0.0000   0.3012
   7.800   1.1729   0.02305   0.01436  -0.0701  0.3579  1.0000  -2.6581   0.0000   0.0000   0.0000   0.3000
   7.900   1.1789   0.02324   0.01453  -0.0692  0.3502  1.0000  -2.7303   0.0000   0.0000   0.0000   0.2988
   8.000   1.1844   0.02347   0.01479  -0.0683  0.3413  1.0000  -2.7998   0.0000   0.0000   0.0000   0.2977
   8.100   1.1898   0.02370   0.01500  -0.0673  0.3332  1.0000  -2.8699   0.0000   0.0000   0.0000   0.2965
   8.200   1.1947   0.02395   0.01524  -0.0664  0.3249  1.0000  -2.9386   0.0000   0.0000   0.0000   0.2953
   8.300   1.1995   0.02422   0.01550  -0.0654  0.3168  1.0000  -3.0068   0.0000   0.0000   0.0000   0.2941
   8.400   1.2039   0.02450   0.01575  -0.0643  0.3093  1.0000  -3.0740   0.0000   0.0000   0.0000   0.2929
   8.500   1.2083   0.02479   0.01607  -0.0633  0.3016  1.0000  -3.1408   0.0000   0.0000   0.0000   0.2917
   8.600   1.2121   0.02510   0.01634  -0.0622  0.2948  1.0000  -3.2064   0.0000   0.0000   0.0000   0.2905
   8.700   1.2161   0.02542   0.01666  -0.0611  0.2877  1.0000  -3.2719   0.0000   0.0000   0.0000   0.2893
   8.800   1.2194   0.02575   0.01697  -0.0599  0.2814  1.0000  -3.3358   0.0000   0.0000   0.0000   0.2881
   8.900   1.2229   0.02609   0.01731  -0.0588  0.2751  1.0000  -3.3998   0.0000   0.0000   0.0000   0.2869
   9.000   1.2257   0.02644   0.01765  -0.0576  0.2693  1.0000  -3.4616   0.0000   0.0000   0.0000   0.2857
   9.100   1.2279   0.02678   0.01797  -0.0563  0.2642  1.0000  -3.5207   0.0000   0.0000   0.0000   0.2844
   9.200   1.2302   0.02713   0.01834  -0.0550  0.2587  1.0000  -3.5800   0.0000   0.0000   0.0000   0.2831
   9.300   1.2320   0.02749   0.01869  -0.0536  0.2540  1.0000  -3.6378   0.0000   0.0000   0.0000   0.2818
   9.400   1.2342   0.02786   0.01905  -0.0523  0.2496  1.0000  -3.6973   0.0000   0.0000   0.0000   0.2805
   9.500   1.2366   0.02824   0.01946  -0.0511  0.2448  1.0000  -3.7576   0.0000   0.0000   0.0000   0.2793
   9.600   1.2386   0.02863   0.01985  -0.0499  0.2405  1.0000  -3.8166   0.0000   0.0000   0.0000   0.2781
   9.700   1.2406   0.02904   0.02023  -0.0487  0.2367  1.0000  -3.8763   0.0000   0.0000   0.0000   0.2770
   9.800   1.2431   0.02944   0.02069  -0.0476  0.2322  1.0000  -3.9373   0.0000   0.0000   0.0000   0.2758
   9.900   1.2452   0.02986   0.02114  -0.0464  0.2282  1.0000  -3.9972   0.0000   0.0000   0.0000   0.2747
  10.000   1.2474   0.03029   0.02155  -0.0453  0.2248  1.0000  -4.0582   0.0000   0.0000   0.0000   0.2736
  10.100   1.2501   0.03072   0.02201  -0.0443  0.2210  1.0000  -4.1209   0.0000   0.0000   0.0000   0.2726
  10.200   1.2526   0.03116   0.02249  -0.0433  0.2171  1.0000  -4.1826   0.0000   0.0000   0.0000   0.2716
  10.300   1.2548   0.03161   0.02295  -0.0422  0.2136  1.0000  -4.2436   0.0000   0.0000   0.0000   0.2705
  10.400   1.2573   0.03207   0.02338  -0.0413  0.2106  1.0000  -4.3072   0.0000   0.0000   0.0000   0.2695
  10.500   1.2599   0.03253   0.02390  -0.0403  0.2069  1.0000  -4.3692   0.0000   0.0000   0.0000   0.2686
  10.600   1.2622   0.03300   0.02442  -0.0394  0.2034  1.0000  -4.4304   0.0000   0.0000   0.0000   0.2676
  10.700   1.2645   0.03348   0.02492  -0.0385  0.2002  1.0000  -4.4921   0.0000   0.0000   0.0000   0.2667
  10.800   1.2671   0.03397   0.02538  -0.0376  0.1973  1.0000  -4.5573   0.0000   0.0000   0.0000   0.2658
  10.900   1.2694   0.03447   0.02595  -0.0367  0.1939  1.0000  -4.6177   0.0000   0.0000   0.0000   0.2649
  11.000   1.2713   0.03499   0.02654  -0.0359  0.1905  1.0000  -4.6768   0.0000   0.0000   0.0000   0.2640
  11.100   1.2730   0.03552   0.02709  -0.0350  0.1874  1.0000  -4.7363   0.0000   0.0000   0.0000   0.2631
  11.200   1.2752   0.03604   0.02760  -0.0342  0.1845  1.0000  -4.7990   0.0000   0.0000   0.0000   0.2623
  11.300   1.2765   0.03661   0.02824  -0.0333  0.1813  1.0000  -4.8551   0.0000   0.0000   0.0000   0.2615
  11.400   1.2771   0.03721   0.02891  -0.0325  0.1778  1.0000  -4.9071   0.0000   0.0000   0.0000   0.2606
  11.500   1.2772   0.03782   0.02954  -0.0316  0.1744  1.0000  -4.9585   0.0000   0.0000   0.0000   0.2598
  11.600   1.2774   0.03844   0.03013  -0.0308  0.1713  1.0000  -5.0114   0.0000   0.0000   0.0000   0.2590
  11.700   1.2765   0.03914   0.03091  -0.0300  0.1677  1.0000  -5.0548   0.0000   0.0000   0.0000   0.2582
  11.800   1.2750   0.03987   0.03171  -0.0292  0.1639  1.0000  -5.0959   0.0000   0.0000   0.0000   0.2574
  11.900   1.2733   0.04062   0.03246  -0.0284  0.1605  1.0000  -5.1371   0.0000   0.0000   0.0000   0.2567
  12.000   1.2715   0.04141   0.03325  -0.0277  0.1570  1.0000  -5.1776   0.0000   0.0000   0.0000   0.2560
  12.100   1.2693   0.04226   0.03419  -0.0271  0.1531  1.0000  -5.2130   0.0000   0.0000   0.0000   0.2553
  12.200   1.2668   0.04314   0.03510  -0.0265  0.1494  1.0000  -5.2480   0.0000   0.0000   0.0000   0.2547
  12.300   1.2641   0.04405   0.03597  -0.0259  0.1463  1.0000  -5.2837   0.0000   0.0000   0.0000   0.2541
  12.400   1.2619   0.04502   0.03704  -0.0254  0.1421  1.0000  -5.3167   0.0000   0.0000   0.0000   0.2536
  12.500   1.2592   0.04602   0.03808  -0.0250  0.1384  1.0000  -5.3491   0.0000   0.0000   0.0000   0.2532
  12.600   1.2562   0.04706   0.03911  -0.0246  0.1352  1.0000  -5.3805   0.0000   0.0000   0.0000   0.2527
  12.700   1.2541   0.04811   0.04022  -0.0243  0.1314  1.0000  -5.4137   0.0000   0.0000   0.0000   0.2523
  12.800   1.2518   0.04919   0.04137  -0.0241  0.1275  1.0000  -5.4457   0.0000   0.0000   0.0000   0.2520
  12.900   1.2488   0.05034   0.04252  -0.0239  0.1244  1.0000  -5.4750   0.0000   0.0000   0.0000   0.2517
  13.000   1.2467   0.05147   0.04370  -0.0237  0.1210  1.0000  -5.5071   0.0000   0.0000   0.0000   0.2514
  13.100   1.2448   0.05263   0.04493  -0.0236  0.1171  1.0000  -5.5392   0.0000   0.0000   0.0000   0.2512
  13.200   1.2419   0.05388   0.04620  -0.0236  0.1139  1.0000  -5.5661   0.0000   0.0000   0.0000   0.2510
  13.300   1.2392   0.05515   0.04749  -0.0235  0.1107  1.0000  -5.5934   0.0000   0.0000   0.0000   0.2508
  13.400   1.2374   0.05640   0.04882  -0.0236  0.1066  1.0000  -5.6230   0.0000   0.0000   0.0000   0.2507
  13.500   1.2342   0.05778   0.05023  -0.0236  0.1033  1.0000  -5.6457   0.0000   0.0000   0.0000   0.2506
  13.600   1.2314   0.05917   0.05164  -0.0238  0.0998  1.0000  -5.6692   0.0000   0.0000   0.0000   0.2506
  13.700   1.2289   0.06057   0.05311  -0.0239  0.0957  1.0000  -5.6930   0.0000   0.0000   0.0000   0.2506
  13.800   1.2251   0.06212   0.05469  -0.0242  0.0925  1.0000  -5.7092   0.0000   0.0000   0.0000   0.2506
  13.900   1.2224   0.06361   0.05622  -0.0244  0.0884  1.0000  -5.7299   0.0000   0.0000   0.0000   0.2507
  14.000   1.2190   0.06520   0.05785  -0.0247  0.0846  1.0000  -5.7454   0.0000   0.0000   0.0000   0.2508
  14.100   1.2151   0.06687   0.05953  -0.0251  0.0813  1.0000  -5.7576   0.0000   0.0000   0.0000   0.2510
  14.200   1.2121   0.06850   0.06121  -0.0254  0.0771  1.0000  -5.7724   0.0000   0.0000   0.0000   0.2512
  14.300   1.2076   0.07031   0.06302  -0.0259  0.0740  1.0000  -5.7794   0.0000   0.0000   0.0000   0.2515
  14.400   1.2042   0.07205   0.06479  -0.0264  0.0701  1.0000  -5.7891   0.0000   0.0000   0.0000   0.2517
  14.500   1.1999   0.07392   0.06668  -0.0269  0.0668  1.0000  -5.7938   0.0000   0.0000   0.0000   0.2521
  14.600   1.1954   0.07584   0.06860  -0.0276  0.0639  1.0000  -5.7963   0.0000   0.0000   0.0000   0.2525
  14.700   1.1914   0.07775   0.07054  -0.0282  0.0606  1.0000  -5.7994   0.0000   0.0000   0.0000   0.2529
  14.800   1.1866   0.07979   0.07257  -0.0289  0.0583  1.0000  -5.7978   0.0000   0.0000   0.0000   0.2534
  14.900   1.1823   0.08179   0.07459  -0.0296  0.0557  1.0000  -5.7967   0.0000   0.0000   0.0000   0.2539
  15.000   1.1781   0.08381   0.07664  -0.0303  0.0533  1.0000  -5.7950   0.0000   0.0000   0.0000   0.2545


