xflr5 v6.59

 Calculated polar for: SUAV_Foil

 1 1 Reynolds number fixed          Mach number fixed         

 xtrf =   1.000 (top)        1.000 (bottom)
 Mach =   0.050     Re =     0.100 e 6     Ncrit =   5.000

  alpha     CL        CD       CDp       Cm    Top Xtr Bot Xtr   Cpmin    Chinge    XCp    
 ------- -------- --------- --------- -------- ------- ------- -------- --------- ---------
  -3.000   0.0844   0.01577   0.00682  -0.0970  0.8017  0.1884  -1.3143   0.0000   0.0000   0.0000   1.4132
  -2.900   0.0966   0.01560   0.00666  -0.0971  0.7970  0.1999  -1.2673   0.0000   0.0000   0.0000   1.2671
  -2.800   0.1077   0.01546   0.00655  -0.0970  0.7914  0.2123  -1.2242   0.0000   0.0000   0.0000   1.1616
  -2.700   0.1183   0.01534   0.00645  -0.0969  0.7853  0.2263  -1.1823   0.0000   0.0000   0.0000   1.0780
  -2.600   0.1297   0.01520   0.00634  -0.0969  0.7799  0.2423  -1.1426   0.0000   0.0000   0.0000   1.0051
  -2.500   0.1414   0.01508   0.00624  -0.0969  0.7752  0.2596  -1.1022   0.0000   0.0000   0.0000   0.9423
  -2.400   0.1525   0.01499   0.00618  -0.0968  0.7700  0.2783  -1.0632   0.0000   0.0000   0.0000   0.8910
  -2.300   0.1631   0.01491   0.00616  -0.0967  0.7641  0.2967  -1.0251   0.0000   0.0000   0.0000   0.8480
  -2.200   0.1743   0.01485   0.00611  -0.0966  0.7589  0.3154  -0.9862   0.0000   0.0000   0.0000   0.8087
  -2.100   0.1858   0.01480   0.00606  -0.0965  0.7544  0.3330  -0.9468   0.0000   0.0000   0.0000   0.7734
  -2.000   0.1969   0.01477   0.00603  -0.0964  0.7493  0.3498  -0.9091   0.0000   0.0000   0.0000   0.7431
  -1.900   0.2077   0.01476   0.00602  -0.0962  0.7439  0.3649  -0.8748   0.0000   0.0000   0.0000   0.7165
  -1.800   0.2188   0.01474   0.00598  -0.0961  0.7391  0.3790  -0.8401   0.0000   0.0000   0.0000   0.6920
  -1.700   0.2302   0.01473   0.00594  -0.0960  0.7349  0.3925  -0.8052   0.0000   0.0000   0.0000   0.6694
  -1.600   0.2412   0.01472   0.00592  -0.0959  0.7302  0.4050  -0.7718   0.0000   0.0000   0.0000   0.6495
  -1.500   0.2519   0.01473   0.00592  -0.0957  0.7252  0.4170  -0.7412   0.0000   0.0000   0.0000   0.6316
  -1.400   0.2629   0.01472   0.00590  -0.0956  0.7207  0.4286  -0.7103   0.0000   0.0000   0.0000   0.6148
  -1.300   0.2742   0.01472   0.00586  -0.0954  0.7168  0.4398  -0.6794   0.0000   0.0000   0.0000   0.5992
  -1.200   0.2851   0.01473   0.00584  -0.0953  0.7126  0.4506  -0.6491   0.0000   0.0000   0.0000   0.5850
  -1.100   0.2958   0.01474   0.00584  -0.0951  0.7079  0.4613  -0.6196   0.0000   0.0000   0.0000   0.5722
  -1.000   0.3065   0.01474   0.00583  -0.0949  0.7037  0.4709  -0.6242   0.0000   0.0000   0.0000   0.5600
  -0.900   0.3175   0.01474   0.00581  -0.0947  0.7001  0.4806  -0.6318   0.0000   0.0000   0.0000   0.5486
  -0.800   0.3285   0.01475   0.00579  -0.0946  0.6965  0.4905  -0.6393   0.0000   0.0000   0.0000   0.5379
  -0.700   0.3391   0.01477   0.00580  -0.0944  0.6921  0.5002  -0.6464   0.0000   0.0000   0.0000   0.5282
  -0.600   0.3497   0.01477   0.00580  -0.0942  0.6881  0.5092  -0.6540   0.0000   0.0000   0.0000   0.5190
  -0.500   0.3606   0.01477   0.00578  -0.0940  0.6847  0.5188  -0.6619   0.0000   0.0000   0.0000   0.5102
  -0.400   0.3717   0.01478   0.00575  -0.0939  0.6816  0.5286  -0.6699   0.0000   0.0000   0.0000   0.5019
  -0.300   0.3822   0.01478   0.00577  -0.0937  0.6776  0.5372  -0.6773   0.0000   0.0000   0.0000   0.4943
  -0.200   0.3930   0.01480   0.00578  -0.0935  0.6738  0.5466  -0.6849   0.0000   0.0000   0.0000   0.4870
  -0.100   0.4038   0.01480   0.00577  -0.0933  0.6705  0.5558  -0.6927   0.0000   0.0000   0.0000   0.4801
   0.000   0.4149   0.01480   0.00575  -0.0932  0.6675  0.5648  -0.7007   0.0000   0.0000   0.0000   0.4734
   0.100   0.4259   0.01481   0.00574  -0.0931  0.6643  0.5744  -0.7089   0.0000   0.0000   0.0000   0.4672
   0.200   0.4365   0.01480   0.00577  -0.0929  0.6606  0.5831  -0.7172   0.0000   0.0000   0.0000   0.4614
   0.300   0.4474   0.01482   0.00577  -0.0928  0.6573  0.5929  -0.7256   0.0000   0.0000   0.0000   0.4558
   0.400   0.4582   0.01480   0.00576  -0.0926  0.6543  0.6020  -0.7342   0.0000   0.0000   0.0000   0.4504
   0.500   0.4694   0.01480   0.00574  -0.0925  0.6518  0.6120  -0.7430   0.0000   0.0000   0.0000   0.4452
   0.600   0.4799   0.01479   0.00576  -0.0923  0.6484  0.6219  -0.7515   0.0000   0.0000   0.0000   0.4404
   0.700   0.4905   0.01479   0.00579  -0.0921  0.6451  0.6325  -0.7601   0.0000   0.0000   0.0000   0.4358
   0.800   0.5012   0.01478   0.00580  -0.0919  0.6421  0.6443  -0.7696   0.0000   0.0000   0.0000   0.4313
   0.900   0.5118   0.01475   0.00580  -0.0917  0.6394  0.6568  -0.7803   0.0000   0.0000   0.0000   0.4270
   1.000   0.5226   0.01473   0.00578  -0.0915  0.6370  0.6713  -0.7911   0.0000   0.0000   0.0000   0.4228
   1.100   0.5325   0.01469   0.00583  -0.0912  0.6336  0.6886  -0.8022   0.0000   0.0000   0.0000   0.4188
   1.200   0.5423   0.01463   0.00586  -0.0908  0.6305  0.7103  -0.8147   0.0000   0.0000   0.0000   0.4149
   1.300   0.5519   0.01453   0.00588  -0.0903  0.6277  0.7429  -0.8278   0.0000   0.0000   0.0000   0.4109
   1.400   0.5644   0.01430   0.00588  -0.0901  0.6252  0.8213  -0.8432   0.0000   0.0000   0.0000   0.4070
   1.500   0.5856   0.01424   0.00583  -0.0921  0.6224  1.0000  -0.8648   0.0000   0.0000   0.0000   0.4044
   1.600   0.5964   0.01433   0.00590  -0.0920  0.6191  1.0000  -0.8801   0.0000   0.0000   0.0000   0.4014
   1.700   0.6074   0.01442   0.00595  -0.0920  0.6160  1.0000  -0.8957   0.0000   0.0000   0.0000   0.3985
   1.800   0.6185   0.01450   0.00598  -0.0920  0.6133  1.0000  -0.9116   0.0000   0.0000   0.0000   0.3956
   1.900   0.6297   0.01459   0.00601  -0.0919  0.6109  1.0000  -0.9277   0.0000   0.0000   0.0000   0.3928
   2.000   0.6407   0.01468   0.00607  -0.0919  0.6082  1.0000  -0.9436   0.0000   0.0000   0.0000   0.3901
   2.100   0.6513   0.01478   0.00615  -0.0918  0.6050  1.0000  -0.9595   0.0000   0.0000   0.0000   0.3875
   2.200   0.6620   0.01487   0.00622  -0.0917  0.6020  1.0000  -0.9763   0.0000   0.0000   0.0000   0.3850
   2.300   0.6730   0.01496   0.00627  -0.0916  0.5993  1.0000  -0.9933   0.0000   0.0000   0.0000   0.3825
   2.400   0.6842   0.01505   0.00630  -0.0915  0.5970  1.0000  -1.0106   0.0000   0.0000   0.0000   0.3801
   2.500   0.6947   0.01515   0.00639  -0.0914  0.5939  1.0000  -1.0272   0.0000   0.0000   0.0000   0.3778
   2.600   0.7051   0.01525   0.00649  -0.0913  0.5906  1.0000  -1.0446   0.0000   0.0000   0.0000   0.3756
   2.700   0.7158   0.01534   0.00656  -0.0911  0.5876  1.0000  -1.0626   0.0000   0.0000   0.0000   0.3734
   2.800   0.7267   0.01544   0.00662  -0.0910  0.5849  1.0000  -1.0809   0.0000   0.0000   0.0000   0.3712
   2.900   0.7377   0.01553   0.00667  -0.0909  0.5823  1.0000  -1.0994   0.0000   0.0000   0.0000   0.3691
   3.000   0.7477   0.01563   0.00679  -0.0907  0.5787  1.0000  -1.1168   0.0000   0.0000   0.0000   0.3671
   3.100   0.7581   0.01573   0.00688  -0.0906  0.5753  1.0000  -1.1347   0.0000   0.0000   0.0000   0.3651
   3.200   0.7688   0.01582   0.00694  -0.0904  0.5723  1.0000  -1.1532   0.0000   0.0000   0.0000   0.3632
   3.300   0.7798   0.01590   0.00698  -0.0903  0.5695  1.0000  -1.1722   0.0000   0.0000   0.0000   0.3612
   3.400   0.7895   0.01600   0.00712  -0.0900  0.5653  1.0000  -1.1894   0.0000   0.0000   0.0000   0.3594
   3.500   0.7997   0.01609   0.00720  -0.0898  0.5615  1.0000  -1.2075   0.0000   0.0000   0.0000   0.3576
   3.600   0.8103   0.01617   0.00725  -0.0896  0.5581  1.0000  -1.2271   0.0000   0.0000   0.0000   0.3558
   3.700   0.8207   0.01625   0.00732  -0.0894  0.5545  1.0000  -1.2466   0.0000   0.0000   0.0000   0.3540
   3.800   0.8303   0.01634   0.00743  -0.0891  0.5501  1.0000  -1.2654   0.0000   0.0000   0.0000   0.3523
   3.900   0.8406   0.01642   0.00750  -0.0889  0.5463  1.0000  -1.2850   0.0000   0.0000   0.0000   0.3506
   4.100   0.8608   0.01659   0.00768  -0.0884  0.5385  1.0000  -1.3240   0.0000   0.0000   0.0000   0.3473
   4.200   0.8707   0.01668   0.00777  -0.0881  0.5344  1.0000  -1.3434   0.0000   0.0000   0.0000   0.3457
   4.300   0.8811   0.01675   0.00782  -0.0879  0.5308  1.0000  -1.3636   0.0000   0.0000   0.0000   0.3442
   4.400   0.8910   0.01684   0.00791  -0.0876  0.5267  1.0000  -1.3839   0.0000   0.0000   0.0000   0.3426
   4.500   0.9006   0.01693   0.00803  -0.0873  0.5223  1.0000  -1.4043   0.0000   0.0000   0.0000   0.3411
   4.600   0.9107   0.01701   0.00810  -0.0870  0.5185  1.0000  -1.4254   0.0000   0.0000   0.0000   0.3397
   4.700   0.9211   0.01708   0.00816  -0.0868  0.5151  1.0000  -1.4470   0.0000   0.0000   0.0000   0.3382
   4.800   0.9303   0.01718   0.00832  -0.0864  0.5104  1.0000  -1.4670   0.0000   0.0000   0.0000   0.3368
   4.900   0.9401   0.01727   0.00842  -0.0861  0.5062  1.0000  -1.4880   0.0000   0.0000   0.0000   0.3354
   5.000   0.9504   0.01734   0.00847  -0.0859  0.5026  1.0000  -1.5098   0.0000   0.0000   0.0000   0.3340
   5.100   0.9596   0.01744   0.00861  -0.0855  0.4980  1.0000  -1.5301   0.0000   0.0000   0.0000   0.3327
   5.200   0.9692   0.01753   0.00873  -0.0852  0.4934  1.0000  -1.5509   0.0000   0.0000   0.0000   0.3313
   5.300   0.9791   0.01760   0.00879  -0.0849  0.4896  1.0000  -1.5727   0.0000   0.0000   0.0000   0.3300
   5.400   0.9885   0.01770   0.00892  -0.0845  0.4850  1.0000  -1.5947   0.0000   0.0000   0.0000   0.3287
   5.500   0.9978   0.01779   0.00905  -0.0842  0.4801  1.0000  -1.6167   0.0000   0.0000   0.0000   0.3275
   5.600   1.0075   0.01787   0.00913  -0.0838  0.4760  1.0000  -1.6396   0.0000   0.0000   0.0000   0.3262
   5.700   1.0167   0.01797   0.00927  -0.0834  0.4711  1.0000  -1.6616   0.0000   0.0000   0.0000   0.3249
   5.800   1.0259   0.01807   0.00940  -0.0831  0.4660  1.0000  -1.6837   0.0000   0.0000   0.0000   0.3237
   5.900   1.0355   0.01815   0.00947  -0.0827  0.4618  1.0000  -1.7080   0.0000   0.0000   0.0000   0.3225
   6.000   1.0443   0.01826   0.00963  -0.0823  0.4563  1.0000  -1.7311   0.0000   0.0000   0.0000   0.3213
   6.100   1.0534   0.01836   0.00975  -0.0819  0.4511  1.0000  -1.7548   0.0000   0.0000   0.0000   0.3201
   6.200   1.0626   0.01845   0.00984  -0.0814  0.4463  1.0000  -1.7788   0.0000   0.0000   0.0000   0.3189
   6.300   1.0712   0.01856   0.01001  -0.0810  0.4401  1.0000  -1.8018   0.0000   0.0000   0.0000   0.3177
   6.400   1.0801   0.01866   0.01011  -0.0805  0.4347  1.0000  -1.8257   0.0000   0.0000   0.0000   0.3166
   6.500   1.0886   0.01877   0.01028  -0.0800  0.4284  1.0000  -1.8488   0.0000   0.0000   0.0000   0.3154
   6.600   1.0972   0.01888   0.01040  -0.0795  0.4224  1.0000  -1.9021   0.0000   0.0000   0.0000   0.3143
   6.700   1.1056   0.01900   0.01054  -0.0790  0.4160  1.0000  -1.9710   0.0000   0.0000   0.0000   0.3131
   6.800   1.1139   0.01912   0.01068  -0.0785  0.4094  1.0000  -2.0401   0.0000   0.0000   0.0000   0.3120
   6.900   1.1220   0.01924   0.01082  -0.0779  0.4027  1.0000  -2.1096   0.0000   0.0000   0.0000   0.3108
   7.000   1.1299   0.01937   0.01098  -0.0773  0.3954  1.0000  -2.1789   0.0000   0.0000   0.0000   0.3097
   7.100   1.1377   0.01951   0.01113  -0.0767  0.3880  1.0000  -2.2484   0.0000   0.0000   0.0000   0.3086
   7.200   1.1453   0.01966   0.01128  -0.0761  0.3804  1.0000  -2.3178   0.0000   0.0000   0.0000   0.3074
   7.300   1.1527   0.01982   0.01147  -0.0754  0.3723  1.0000  -2.3873   0.0000   0.0000   0.0000   0.3063
   7.400   1.1598   0.01998   0.01161  -0.0747  0.3645  1.0000  -2.4615   0.0000   0.0000   0.0000   0.3051
   7.500   1.1669   0.02016   0.01181  -0.0740  0.3555  1.0000  -2.5362   0.0000   0.0000   0.0000   0.3040
   7.600   1.1735   0.02034   0.01199  -0.0732  0.3471  1.0000  -2.6102   0.0000   0.0000   0.0000   0.3029
   7.700   1.1799   0.02055   0.01218  -0.0724  0.3381  1.0000  -2.6837   0.0000   0.0000   0.0000   0.3017
   7.800   1.1861   0.02076   0.01239  -0.0716  0.3290  1.0000  -2.7570   0.0000   0.0000   0.0000   0.3006
   7.900   1.1918   0.02100   0.01259  -0.0707  0.3205  1.0000  -2.8289   0.0000   0.0000   0.0000   0.2994
   8.000   1.1975   0.02124   0.01283  -0.0698  0.3116  1.0000  -2.9010   0.0000   0.0000   0.0000   0.2983
   8.100   1.2029   0.02150   0.01307  -0.0689  0.3033  1.0000  -2.9722   0.0000   0.0000   0.0000   0.2971
   8.200   1.2078   0.02177   0.01331  -0.0679  0.2954  1.0000  -3.0419   0.0000   0.0000   0.0000   0.2959
   8.300   1.2129   0.02205   0.01359  -0.0670  0.2875  1.0000  -3.1126   0.0000   0.0000   0.0000   0.2948
   8.400   1.2171   0.02236   0.01387  -0.0659  0.2804  1.0000  -3.1804   0.0000   0.0000   0.0000   0.2936
   8.500   1.2218   0.02265   0.01416  -0.0649  0.2732  1.0000  -3.2503   0.0000   0.0000   0.0000   0.2924
   8.600   1.2256   0.02297   0.01446  -0.0638  0.2668  1.0000  -3.3168   0.0000   0.0000   0.0000   0.2912
   8.700   1.2300   0.02327   0.01477  -0.0628  0.2605  1.0000  -3.3857   0.0000   0.0000   0.0000   0.2901
   8.800   1.2337   0.02360   0.01508  -0.0617  0.2546  1.0000  -3.4523   0.0000   0.0000   0.0000   0.2889
   8.900   1.2372   0.02393   0.01540  -0.0605  0.2494  1.0000  -3.5182   0.0000   0.0000   0.0000   0.2877
   9.000   1.2409   0.02424   0.01573  -0.0594  0.2439  1.0000  -3.5850   0.0000   0.0000   0.0000   0.2865
   9.100   1.2429   0.02457   0.01604  -0.0580  0.2393  1.0000  -3.6448   0.0000   0.0000   0.0000   0.2852
   9.200   1.2453   0.02489   0.01637  -0.0567  0.2348  1.0000  -3.7064   0.0000   0.0000   0.0000   0.2839
   9.300   1.2478   0.02521   0.01671  -0.0554  0.2302  1.0000  -3.7686   0.0000   0.0000   0.0000   0.2826
   9.400   1.2497   0.02556   0.01705  -0.0540  0.2262  1.0000  -3.8281   0.0000   0.0000   0.0000   0.2813
   9.500   1.2517   0.02592   0.01740  -0.0527  0.2226  1.0000  -3.8889   0.0000   0.0000   0.0000   0.2801
   9.600   1.2549   0.02625   0.01777  -0.0516  0.2184  1.0000  -3.9545   0.0000   0.0000   0.0000   0.2789
   9.700   1.2571   0.02661   0.01816  -0.0504  0.2146  1.0000  -4.0163   0.0000   0.0000   0.0000   0.2777
   9.800   1.2587   0.02701   0.01854  -0.0491  0.2114  1.0000  -4.0756   0.0000   0.0000   0.0000   0.2765
   9.900   1.2613   0.02738   0.01894  -0.0480  0.2079  1.0000  -4.1392   0.0000   0.0000   0.0000   0.2754
  10.000   1.2641   0.02775   0.01935  -0.0469  0.2042  1.0000  -4.2039   0.0000   0.0000   0.0000   0.2743
  10.100   1.2662   0.02814   0.01976  -0.0457  0.2009  1.0000  -4.2659   0.0000   0.0000   0.0000   0.2732
  10.200   1.2679   0.02858   0.02018  -0.0446  0.1980  1.0000  -4.3258   0.0000   0.0000   0.0000   0.2721
  10.300   1.2704   0.02898   0.02061  -0.0435  0.1948  1.0000  -4.3900   0.0000   0.0000   0.0000   0.2711
  10.400   1.2732   0.02938   0.02106  -0.0426  0.1914  1.0000  -4.4551   0.0000   0.0000   0.0000   0.2701
  10.500   1.2753   0.02980   0.02152  -0.0415  0.1882  1.0000  -4.5176   0.0000   0.0000   0.0000   0.2691
  10.600   1.2769   0.03026   0.02198  -0.0405  0.1854  1.0000  -4.5776   0.0000   0.0000   0.0000   0.2681
  10.700   1.2789   0.03072   0.02244  -0.0395  0.1826  1.0000  -4.6395   0.0000   0.0000   0.0000   0.2671
  10.800   1.2814   0.03115   0.02294  -0.0386  0.1792  1.0000  -4.7035   0.0000   0.0000   0.0000   0.2662
  10.900   1.2828   0.03163   0.02345  -0.0376  0.1758  1.0000  -4.7626   0.0000   0.0000   0.0000   0.2652
  11.000   1.2832   0.03215   0.02397  -0.0365  0.1727  1.0000  -4.8172   0.0000   0.0000   0.0000   0.2642
  11.100   1.2838   0.03268   0.02451  -0.0356  0.1694  1.0000  -4.8726   0.0000   0.0000   0.0000   0.2633
  11.200   1.2846   0.03320   0.02511  -0.0346  0.1652  1.0000  -4.9280   0.0000   0.0000   0.0000   0.2624
  11.300   1.2840   0.03378   0.02571  -0.0336  0.1615  1.0000  -4.9772   0.0000   0.0000   0.0000   0.2615
  11.400   1.2827   0.03443   0.02632  -0.0327  0.1582  1.0000  -5.0231   0.0000   0.0000   0.0000   0.2606
  11.500   1.2829   0.03501   0.02699  -0.0318  0.1535  1.0000  -5.0751   0.0000   0.0000   0.0000   0.2598
  11.600   1.2818   0.03568   0.02769  -0.0310  0.1494  1.0000  -5.1207   0.0000   0.0000   0.0000   0.2590
  11.700   1.2796   0.03643   0.02840  -0.0301  0.1461  1.0000  -5.1614   0.0000   0.0000   0.0000   0.2581
  11.800   1.2798   0.03709   0.02914  -0.0294  0.1412  1.0000  -5.2125   0.0000   0.0000   0.0000   0.2574
  11.900   1.2782   0.03786   0.02993  -0.0287  0.1372  1.0000  -5.2550   0.0000   0.0000   0.0000   0.2567
  12.000   1.2763   0.03868   0.03073  -0.0280  0.1336  1.0000  -5.2953   0.0000   0.0000   0.0000   0.2561
  12.100   1.2765   0.03940   0.03153  -0.0274  0.1289  1.0000  -5.3460   0.0000   0.0000   0.0000   0.2554
  12.200   1.2750   0.04025   0.03240  -0.0269  0.1252  1.0000  -5.3875   0.0000   0.0000   0.0000   0.2548
  12.300   1.2737   0.04112   0.03328  -0.0263  0.1218  1.0000  -5.4294   0.0000   0.0000   0.0000   0.2543
  12.400   1.2738   0.04192   0.03414  -0.0259  0.1176  1.0000  -5.4786   0.0000   0.0000   0.0000   0.2538
  12.500   1.2723   0.04285   0.03509  -0.0255  0.1141  1.0000  -5.5186   0.0000   0.0000   0.0000   0.2533
  12.600   1.2711   0.04379   0.03605  -0.0251  0.1106  1.0000  -5.5596   0.0000   0.0000   0.0000   0.2528
  12.700   1.2710   0.04468   0.03700  -0.0247  0.1062  1.0000  -5.6056   0.0000   0.0000   0.0000   0.2523
  12.800   1.2690   0.04572   0.03805  -0.0244  0.1027  1.0000  -5.6411   0.0000   0.0000   0.0000   0.2519
  12.900   1.2685   0.04669   0.03907  -0.0242  0.0985  1.0000  -5.6835   0.0000   0.0000   0.0000   0.2516
  13.000   1.2671   0.04774   0.04015  -0.0239  0.0943  1.0000  -5.7210   0.0000   0.0000   0.0000   0.2512
  13.100   1.2651   0.04888   0.04130  -0.0237  0.0904  1.0000  -5.7536   0.0000   0.0000   0.0000   0.2509
  13.200   1.2639   0.04998   0.04244  -0.0236  0.0854  1.0000  -5.7900   0.0000   0.0000   0.0000   0.2506
  13.300   1.2613   0.05124   0.04371  -0.0235  0.0812  1.0000  -5.8174   0.0000   0.0000   0.0000   0.2504
  13.400   1.2594   0.05245   0.04495  -0.0234  0.0761  1.0000  -5.8479   0.0000   0.0000   0.0000   0.2502
  13.500   1.2564   0.05380   0.04630  -0.0234  0.0717  1.0000  -5.8713   0.0000   0.0000   0.0000   0.2501
  13.600   1.2536   0.05517   0.04768  -0.0234  0.0670  1.0000  -5.8940   0.0000   0.0000   0.0000   0.2499
  13.700   1.2503   0.05661   0.04913  -0.0235  0.0628  1.0000  -5.9130   0.0000   0.0000   0.0000   0.2498
  13.800   1.2465   0.05814   0.05065  -0.0236  0.0587  1.0000  -5.9282   0.0000   0.0000   0.0000   0.2498
  13.900   1.2428   0.05971   0.05222  -0.0238  0.0550  1.0000  -5.9421   0.0000   0.0000   0.0000   0.2498
  14.000   1.2386   0.06135   0.05386  -0.0240  0.0516  1.0000  -5.9529   0.0000   0.0000   0.0000   0.2499
  14.100   1.2344   0.06303   0.05555  -0.0243  0.0487  1.0000  -5.9621   0.0000   0.0000   0.0000   0.2500
  14.200   1.2302   0.06475   0.05727  -0.0246  0.0459  1.0000  -5.9705   0.0000   0.0000   0.0000   0.2501
  14.300   1.2253   0.06658   0.05911  -0.0250  0.0439  1.0000  -5.9744   0.0000   0.0000   0.0000   0.2503
  14.400   1.2214   0.06833   0.06089  -0.0254  0.0416  1.0000  -5.9817   0.0000   0.0000   0.0000   0.2505
  14.500   1.2171   0.07017   0.06275  -0.0258  0.0397  1.0000  -5.9862   0.0000   0.0000   0.0000   0.2508
  14.600   1.2122   0.07211   0.06471  -0.0264  0.0383  1.0000  -5.9874   0.0000   0.0000   0.0000   0.2511
  14.700   1.2076   0.07406   0.06668  -0.0269  0.0370  1.0000  -5.9883   0.0000   0.0000   0.0000   0.2515
  14.800   1.2037   0.07595   0.06862  -0.0275  0.0356  1.0000  -5.9914   0.0000   0.0000   0.0000   0.2519
  14.900   1.1994   0.07792   0.07063  -0.0281  0.0344  1.0000  -5.9924   0.0000   0.0000   0.0000   0.2523
  15.000   1.1948   0.07997   0.07271  -0.0289  0.0335  1.0000  -5.9914   0.0000   0.0000   0.0000   0.2528


