xflr5 v6.59

 Calculated polar for: SUAV_Foil

 1 1 Reynolds number fixed          Mach number fixed         

 xtrf =   1.000 (top)        1.000 (bottom)
 Mach =   0.050     Re =     0.030 e 6     Ncrit =   5.000

  alpha     CL        CD       CDp       Cm    Top Xtr Bot Xtr   Cpmin    Chinge    XCp    
 ------- -------- --------- --------- -------- ------- ------- -------- --------- ---------
  -3.000  -0.1410   0.03388   0.02205  -0.0693  0.9264  0.2298  -1.6752   0.0000   0.0000   0.0000  -0.2520
  -2.900  -0.1305   0.03365   0.02179  -0.0695  0.9211  0.2387  -1.6360   0.0000   0.0000   0.0000  -0.2929
  -2.800  -0.1183   0.03343   0.02158  -0.0699  0.9161  0.2488  -1.5926   0.0000   0.0000   0.0000  -0.3523
  -2.700  -0.1043   0.03320   0.02134  -0.0705  0.9115  0.2605  -1.5468   0.0000   0.0000   0.0000  -0.4389
  -2.600  -0.0891   0.03301   0.02114  -0.0714  0.9074  0.2746  -1.4978   0.0000   0.0000   0.0000  -0.5654
  -2.500  -0.0724   0.03280   0.02088  -0.0725  0.9037  0.2912  -1.4469   0.0000   0.0000   0.0000  -0.7680
  -2.400  -0.0556   0.03269   0.02083  -0.0735  0.9005  0.3080  -1.3920   0.0000   0.0000   0.0000  -1.0933
  -2.300  -0.0488   0.03261   0.02077  -0.0729  0.8949  0.3210  -1.3591   0.0000   0.0000   0.0000  -1.2692
  -2.200  -0.0395   0.03252   0.02068  -0.0727  0.8896  0.3366  -1.3223   0.0000   0.0000   0.0000  -1.6198
  -2.100  -0.0281   0.03245   0.02065  -0.0728  0.8848  0.3546  -1.2833   0.0000   0.0000   0.0000  -2.3763
  -2.000  -0.0149   0.03239   0.02059  -0.0732  0.8805  0.3760  -1.2412   0.0000   0.0000   0.0000  -4.7249
  -1.900  -0.0005   0.03233   0.02055  -0.0737  0.8768  0.3992  -1.1960   0.0000   0.0000   0.0000  -146.1707
  -1.800   0.0149   0.03228   0.02051  -0.0743  0.8736  0.4236  -1.1503   0.0000   0.0000   0.0000   5.3087
  -1.700   0.0286   0.03225   0.02049  -0.0747  0.8702  0.4464  -1.1093   0.0000   0.0000   0.0000   2.8886
  -1.600   0.0326   0.03228   0.02051  -0.0736  0.8643  0.4622  -1.0866   0.0000   0.0000   0.0000   2.5360
  -1.500   0.0406   0.03227   0.02053  -0.0730  0.8593  0.4802  -1.0555   0.0000   0.0000   0.0000   2.0660
  -1.400   0.0517   0.03225   0.02049  -0.0729  0.8551  0.5021  -1.0200   0.0000   0.0000   0.0000   1.6770
  -1.300   0.0638   0.03218   0.02045  -0.0729  0.8513  0.5231  -0.9817   0.0000   0.0000   0.0000   1.4051
  -1.200   0.0778   0.03210   0.02036  -0.0733  0.8481  0.5466  -0.9408   0.0000   0.0000   0.0000   1.2006
  -1.100   0.0924   0.03198   0.02026  -0.0736  0.8454  0.5696  -0.9015   0.0000   0.0000   0.0000   1.0528
  -1.000   0.1001   0.03196   0.02024  -0.0730  0.8410  0.5878  -0.8746   0.0000   0.0000   0.0000   0.9851
  -0.900   0.1042   0.03196   0.02027  -0.0719  0.8357  0.6034  -0.8535   0.0000   0.0000   0.0000   0.9449
  -0.800   0.1125   0.03190   0.02024  -0.0713  0.8313  0.6225  -0.8256   0.0000   0.0000   0.0000   0.8882
  -0.700   0.1230   0.03179   0.02015  -0.0710  0.8276  0.6434  -0.7943   0.0000   0.0000   0.0000   0.8313
  -0.600   0.1350   0.03164   0.02005  -0.0710  0.8244  0.6662  -0.7633   0.0000   0.0000   0.0000   0.7784
  -0.500   0.1484   0.03146   0.01993  -0.0710  0.8216  0.6907  -0.7307   0.0000   0.0000   0.0000   0.7309
  -0.400   0.1626   0.03122   0.01981  -0.0711  0.8193  0.7171  -0.6967   0.0000   0.0000   0.0000   0.6891
  -0.300   0.1640   0.03126   0.01991  -0.0696  0.8140  0.7369  -0.6819   0.0000   0.0000   0.0000   0.6757
  -0.100   0.1875   0.03099   0.01996  -0.0695  0.8057  0.8151  -0.6241   0.0000   0.0000   0.0000   0.6215
   0.000   0.2233   0.03077   0.01972  -0.0743  0.8026  1.0000  -0.5674   0.0000   0.0000   0.0000   0.5828
   0.100   0.2414   0.03088   0.01963  -0.0760  0.7997  1.0000  -0.5602   0.0000   0.0000   0.0000   0.5646
   0.200   0.2608   0.03099   0.01955  -0.0777  0.7971  1.0000  -0.5722   0.0000   0.0000   0.0000   0.5478
   0.300   0.2780   0.03113   0.01951  -0.0791  0.7944  1.0000  -0.5834   0.0000   0.0000   0.0000   0.5340
   0.400   0.2775   0.03151   0.01980  -0.0779  0.7883  1.0000  -0.5830   0.0000   0.0000   0.0000   0.5299
   0.500   0.2874   0.03175   0.01992  -0.0781  0.7841  1.0000  -0.5895   0.0000   0.0000   0.0000   0.5208
   0.600   0.3010   0.03194   0.01997  -0.0788  0.7806  1.0000  -0.5989   0.0000   0.0000   0.0000   0.5106
   0.700   0.3168   0.03209   0.01999  -0.0797  0.7777  1.0000  -0.6101   0.0000   0.0000   0.0000   0.5004
   0.800   0.3339   0.03222   0.01999  -0.0808  0.7752  1.0000  -0.6227   0.0000   0.0000   0.0000   0.4906
   0.900   0.3512   0.03234   0.01998  -0.0819  0.7729  1.0000  -0.6359   0.0000   0.0000   0.0000   0.4816
   1.000   0.3486   0.03283   0.02042  -0.0803  0.7668  1.0000  -0.6353   0.0000   0.0000   0.0000   0.4788
   1.100   0.3568   0.03312   0.02062  -0.0802  0.7627  1.0000  -0.6426   0.0000   0.0000   0.0000   0.4729
   1.200   0.3694   0.03333   0.02074  -0.0806  0.7593  1.0000  -0.6532   0.0000   0.0000   0.0000   0.4662
   1.300   0.3840   0.03349   0.02081  -0.0812  0.7565  1.0000  -0.6654   0.0000   0.0000   0.0000   0.4594
   1.400   0.4000   0.03363   0.02086  -0.0820  0.7541  1.0000  -0.6799   0.0000   0.0000   0.0000   0.4528
   1.500   0.4107   0.03388   0.02103  -0.0821  0.7508  1.0000  -0.6907   0.0000   0.0000   0.0000   0.4476
   1.600   0.4106   0.03438   0.02149  -0.0809  0.7455  1.0000  -0.6931   0.0000   0.0000   0.0000   0.4446
   1.700   0.4194   0.03467   0.02172  -0.0808  0.7416  1.0000  -0.7026   0.0000   0.0000   0.0000   0.4400
   1.800   0.4322   0.03488   0.02187  -0.0811  0.7385  1.0000  -0.7164   0.0000   0.0000   0.0000   0.4350
   1.900   0.4470   0.03504   0.02196  -0.0817  0.7359  1.0000  -0.7324   0.0000   0.0000   0.0000   0.4300
   2.000   0.4633   0.03516   0.02201  -0.0824  0.7337  1.0000  -0.7498   0.0000   0.0000   0.0000   0.4250
   2.100   0.4628   0.03571   0.02253  -0.0812  0.7286  1.0000  -0.7526   0.0000   0.0000   0.0000   0.4224
   2.200   0.4678   0.03611   0.02289  -0.0806  0.7243  1.0000  -0.7602   0.0000   0.0000   0.0000   0.4192
   2.300   0.4790   0.03636   0.02310  -0.0807  0.7209  1.0000  -0.7734   0.0000   0.0000   0.0000   0.4153
   2.400   0.4932   0.03653   0.02323  -0.0811  0.7182  1.0000  -0.7909   0.0000   0.0000   0.0000   0.4112
   2.500   0.5094   0.03665   0.02331  -0.0818  0.7159  1.0000  -0.8104   0.0000   0.0000   0.0000   0.4072
   2.600   0.5113   0.03717   0.02379  -0.0808  0.7113  1.0000  -0.8163   0.0000   0.0000   0.0000   0.4047
   2.700   0.5143   0.03764   0.02425  -0.0800  0.7067  1.0000  -0.8232   0.0000   0.0000   0.0000   0.4020
   2.800   0.5250   0.03791   0.02449  -0.0800  0.7034  1.0000  -0.8376   0.0000   0.0000   0.0000   0.3988
   2.900   0.5394   0.03808   0.02463  -0.0805  0.7007  1.0000  -0.8557   0.0000   0.0000   0.0000   0.3954
   3.000   0.5563   0.03817   0.02469  -0.0811  0.6984  1.0000  -0.8768   0.0000   0.0000   0.0000   0.3920
   3.100   0.5535   0.03884   0.02536  -0.0797  0.6930  1.0000  -0.8785   0.0000   0.0000   0.0000   0.3901
   3.200   0.5587   0.03927   0.02577  -0.0791  0.6888  1.0000  -0.8884   0.0000   0.0000   0.0000   0.3875
   3.300   0.5712   0.03950   0.02598  -0.0793  0.6857  1.0000  -0.9056   0.0000   0.0000   0.0000   0.3847
   3.400   0.5872   0.03961   0.02608  -0.0799  0.6832  1.0000  -0.9266   0.0000   0.0000   0.0000   0.3817
   3.500   0.5949   0.03998   0.02644  -0.0795  0.6794  1.0000  -0.9391   0.0000   0.0000   0.0000   0.3793
   3.600   0.5933   0.04063   0.02708  -0.0782  0.6741  1.0000  -0.9419   0.0000   0.0000   0.0000   0.3774
   3.700   0.6042   0.04090   0.02734  -0.0782  0.6707  1.0000  -0.9587   0.0000   0.0000   0.0000   0.3749
   3.800   0.6203   0.04101   0.02746  -0.0787  0.6680  1.0000  -0.9813   0.0000   0.0000   0.0000   0.3723
   3.900   0.6307   0.04129   0.02774  -0.0786  0.6645  1.0000  -0.9976   0.0000   0.0000   0.0000   0.3700
   4.000   0.6271   0.04202   0.02847  -0.0771  0.6588  1.0000  -0.9987   0.0000   0.0000   0.0000   0.3682
   4.100   0.6388   0.04226   0.02871  -0.0772  0.6553  1.0000  -1.0166   0.0000   0.0000   0.0000   0.3659
   4.200   0.6562   0.04231   0.02878  -0.0778  0.6526  1.0000  -1.0410   0.0000   0.0000   0.0000   0.3635
   4.300   0.6566   0.04292   0.02939  -0.0767  0.6477  1.0000  -1.0464   0.0000   0.0000   0.0000   0.3617
   4.400   0.6606   0.04341   0.02988  -0.0759  0.6429  1.0000  -1.0558   0.0000   0.0000   0.0000   0.3597
   4.500   0.6757   0.04353   0.03002  -0.0763  0.6397  1.0000  -1.0779   0.0000   0.0000   0.0000   0.3576
   4.600   0.6959   0.04346   0.02999  -0.0771  0.6372  1.0000  -1.1066   0.0000   0.0000   0.0000   0.3553
   4.700   0.6846   0.04450   0.03102  -0.0749  0.6304  1.0000  -1.0987   0.0000   0.0000   0.0000   0.3538
   4.800   0.6974   0.04468   0.03122  -0.0749  0.6267  1.0000  -1.1195   0.0000   0.0000   0.0000   0.3518
   4.900   0.7178   0.04458   0.03116  -0.0757  0.6239  1.0000  -1.1496   0.0000   0.0000   0.0000   0.3497
   5.000   0.7094   0.04553   0.03211  -0.0738  0.6175  1.0000  -1.1449   0.0000   0.0000   0.0000   0.3482
   5.100   0.7210   0.04574   0.03234  -0.0737  0.6134  1.0000  -1.1645   0.0000   0.0000   0.0000   0.3463
   5.200   0.7424   0.04558   0.03222  -0.0745  0.6104  1.0000  -1.1962   0.0000   0.0000   0.0000   0.3443
   5.300   0.7335   0.04656   0.03321  -0.0726  0.6038  1.0000  -1.1907   0.0000   0.0000   0.0000   0.3428
   5.400   0.7464   0.04670   0.03338  -0.0725  0.5996  1.0000  -1.2121   0.0000   0.0000   0.0000   0.3410
   5.500   0.7699   0.04641   0.03316  -0.0734  0.5966  1.0000  -1.2485   0.0000   0.0000   0.0000   0.3390
   5.600   0.7570   0.04758   0.03432  -0.0712  0.5894  1.0000  -1.2377   0.0000   0.0000   0.0000   0.3376
   5.700   0.7736   0.04754   0.03433  -0.0714  0.5854  1.0000  -1.2656   0.0000   0.0000   0.0000   0.3358
   5.800   0.7830   0.04779   0.03461  -0.0711  0.5807  1.0000  -1.2842   0.0000   0.0000   0.0000   0.3341
   5.900   0.7816   0.04850   0.03535  -0.0698  0.5745  1.0000  -1.2883   0.0000   0.0000   0.0000   0.3326
   6.000   0.8034   0.04820   0.03510  -0.0704  0.5709  1.0000  -1.3237   0.0000   0.0000   0.0000   0.3308
   6.100   0.7962   0.04918   0.03609  -0.0687  0.5642  1.0000  -1.3200   0.0000   0.0000   0.0000   0.3293
   6.200   0.8089   0.04925   0.03621  -0.0685  0.5593  1.0000  -1.3432   0.0000   0.0000   0.0000   0.3276
   6.300   0.8358   0.04866   0.03572  -0.0694  0.5560  1.0000  -1.3865   0.0000   0.0000   0.0000   0.3259
   6.400   0.8177   0.05016   0.03721  -0.0670  0.5480  1.0000  -1.3674   0.0000   0.0000   0.0000   0.3246
   6.500   0.8407   0.04969   0.03682  -0.0675  0.5440  1.0000  -1.4074   0.0000   0.0000   0.0000   0.3228
   6.600   0.8316   0.05081   0.03794  -0.0657  0.5370  1.0000  -1.4008   0.0000   0.0000   0.0000   0.3215
   6.700   0.8460   0.05074   0.03793  -0.0656  0.5321  1.0000  -1.4285   0.0000   0.0000   0.0000   0.3199
   6.800   0.8564   0.05086   0.03810  -0.0651  0.5268  1.0000  -1.4505   0.0000   0.0000   0.0000   0.3183
   6.900   0.8536   0.05167   0.03893  -0.0639  0.5201  1.0000  -1.4530   0.0000   0.0000   0.0000   0.3170
   7.000   0.8814   0.05083   0.03819  -0.0645  0.5162  1.0000  -1.5026   0.0000   0.0000   0.0000   0.3152
   7.100   0.8634   0.05250   0.03984  -0.0624  0.5083  1.0000  -1.4816   0.0000   0.0000   0.0000   0.3142
   7.200   0.8856   0.05190   0.03935  -0.0625  0.5038  1.0000  -1.5242   0.0000   0.0000   0.0000   0.3124
   7.300   0.8763   0.05314   0.04060  -0.0610  0.4966  1.0000  -1.5164   0.0000   0.0000   0.0000   0.3113
   7.400   0.8908   0.05294   0.04048  -0.0607  0.4913  1.0000  -1.5469   0.0000   0.0000   0.0000   0.3097
   7.500   0.8945   0.05341   0.04098  -0.0599  0.4852  1.0000  -1.5601   0.0000   0.0000   0.0000   0.3084
   7.600   0.8970   0.05395   0.04157  -0.0590  0.4788  1.0000  -1.5712   0.0000   0.0000   0.0000   0.3071
   7.700   0.9274   0.05272   0.04045  -0.0594  0.4749  1.0000  -1.6298   0.0000   0.0000   0.0000   0.3052
   7.800   0.9038   0.05497   0.04267  -0.0575  0.4664  1.0000  -1.5967   0.0000   0.0000   0.0000   0.3046
   7.900   0.9297   0.05392   0.04172  -0.0574  0.4621  1.0000  -1.6506   0.0000   0.0000   0.0000   0.3027
   8.000   0.9122   0.05588   0.04367  -0.0560  0.4541  1.0000  -1.6268   0.0000   0.0000   0.0000   0.3022
   8.100   0.9319   0.05520   0.04308  -0.0557  0.4493  1.0000  -1.6721   0.0000   0.0000   0.0000   0.3004
   8.200   0.9226   0.05667   0.04456  -0.0546  0.4421  1.0000  -1.6627   0.0000   0.0000   0.0000   0.2997
   8.300   0.9345   0.05654   0.04452  -0.0540  0.4366  1.0000  -1.6936   0.0000   0.0000   0.0000   0.2982
   8.400   0.9390   0.05698   0.04501  -0.0533  0.4307  1.0000  -1.7103   0.0000   0.0000   0.0000   0.2971
   8.500   0.9375   0.05791   0.04597  -0.0525  0.4240  1.0000  -1.7277   0.0000   0.0000   0.0000   0.2962
   8.600   0.9670   0.05634   0.04452  -0.0522  0.4201  1.0000  -1.8824   0.0000   0.0000   0.0000   0.2940
   8.700   0.9415   0.05927   0.04742  -0.0512  0.4117  1.0000  -1.8021   0.0000   0.0000   0.0000   0.2943
   8.800   0.9645   0.05813   0.04638  -0.0506  0.4074  1.0000  -1.9316   0.0000   0.0000   0.0000   0.2923
   8.900   0.9485   0.06042   0.04866  -0.0500  0.3999  1.0000  -1.8899   0.0000   0.0000   0.0000   0.2923
   9.000   0.9619   0.06010   0.04841  -0.0493  0.3949  1.0000  -1.9783   0.0000   0.0000   0.0000   0.2908
   9.100   0.9666   0.06058   0.04894  -0.0487  0.3895  1.0000  -2.0288   0.0000   0.0000   0.0000   0.2898
   9.200   0.9604   0.06211   0.05049  -0.0482  0.3829  1.0000  -2.0289   0.0000   0.0000   0.0000   0.2894
   9.300   0.9866   0.06053   0.04902  -0.0474  0.3790  1.0000  -2.1794   0.0000   0.0000   0.0000   0.2871
   9.400   0.9637   0.06376   0.05222  -0.0472  0.3716  1.0000  -2.1005   0.0000   0.0000   0.0000   0.2880
   9.500   0.9772   0.06338   0.05192  -0.0465  0.3670  1.0000  -2.1932   0.0000   0.0000   0.0000   0.2864
   9.600   0.9888   0.06323   0.05186  -0.0459  0.3626  1.0000  -2.2773   0.0000   0.0000   0.0000   0.2851
   9.700   0.9718   0.06609   0.05470  -0.0459  0.3559  1.0000  -2.2223   0.0000   0.0000   0.0000   0.2858
   9.800   0.9926   0.06488   0.05360  -0.0450  0.3519  1.0000  -2.3534   0.0000   0.0000   0.0000   0.2837
   9.900   0.9819   0.06714   0.05586  -0.0449  0.3462  1.0000  -2.3281   0.0000   0.0000   0.0000   0.2840
  10.000   0.9805   0.06842   0.05717  -0.0447  0.3408  1.0000  -2.3484   0.0000   0.0000   0.0000   0.2837
  10.100   1.0043   0.06685   0.05571  -0.0436  0.3373  1.0000  -2.4974   0.0000   0.0000   0.0000   0.2813
  10.200   0.9847   0.07029   0.05912  -0.0440  0.3316  1.0000  -2.4237   0.0000   0.0000   0.0000   0.2826
  10.300   0.9843   0.07156   0.06043  -0.0439  0.3268  1.0000  -2.4476   0.0000   0.0000   0.0000   0.2823
  10.400   1.0071   0.07000   0.05897  -0.0427  0.3234  1.0000  -2.5955   0.0000   0.0000   0.0000   0.2799
  10.500   0.9914   0.07316   0.06212  -0.0432  0.3182  1.0000  -2.5380   0.0000   0.0000   0.0000   0.2811
  10.600   0.9848   0.07526   0.06423  -0.0434  0.3133  1.0000  -2.5284   0.0000   0.0000   0.0000   0.2815
  10.700   1.0034   0.07414   0.06321  -0.0423  0.3099  1.0000  -2.6561   0.0000   0.0000   0.0000   0.2793
  10.800   1.0074   0.07493   0.06404  -0.0420  0.3061  1.0000  -2.7043   0.0000   0.0000   0.0000   0.2787
  10.900   0.9825   0.07961   0.06868  -0.0435  0.3009  1.0000  -2.5896   0.0000   0.0000   0.0000   0.2813
  11.000   0.9905   0.07987   0.06900  -0.0430  0.2973  1.0000  -2.6597   0.0000   0.0000   0.0000   0.2802
  11.200   0.9862   0.08328   0.07246  -0.0434  0.2896  1.0000  -2.6827   0.0000   0.0000   0.0000   0.2806
  11.300   0.9789   0.08577   0.07495  -0.0440  0.2854  1.0000  -2.6630   0.0000   0.0000   0.0000   0.2814
  11.400   0.9924   0.08519   0.07447  -0.0430  0.2822  1.0000  -2.7668   0.0000   0.0000   0.0000   0.2797
  11.500   1.0204   0.08262   0.07208  -0.0410  0.2796  1.0000  -2.9570   0.0000   0.0000   0.0000   0.2763
  11.600   0.9770   0.09049   0.07977  -0.0446  0.2749  1.0000  -2.7174   0.0000   0.0000   0.0000   0.2818
  11.700   0.9716   0.09281   0.08210  -0.0453  0.2713  1.0000  -2.7052   0.0000   0.0000   0.0000   0.2826
  11.800   0.9824   0.09267   0.08207  -0.0446  0.2683  1.0000  -2.7933   0.0000   0.0000   0.0000   0.2812
  11.900   1.0086   0.09012   0.07968  -0.0424  0.2657  1.0000  -2.9793   0.0000   0.0000   0.0000   0.2776
  12.000   0.9736   0.09705   0.08646  -0.0458  0.2617  1.0000  -2.7792   0.0000   0.0000   0.0000   0.2827
  12.100   0.9645   0.09994   0.08934  -0.0469  0.2582  1.0000  -2.7408   0.0000   0.0000   0.0000   0.2842
  12.200   0.9693   0.10074   0.09021  -0.0468  0.2551  1.0000  -2.7905   0.0000   0.0000   0.0000   0.2837
  12.300   0.9861   0.09971   0.08930  -0.0455  0.2525  1.0000  -2.9183   0.0000   0.0000   0.0000   0.2813
  12.400   0.9781   0.10254   0.09211  -0.0466  0.2496  1.0000  -2.8847   0.0000   0.0000   0.0000   0.2827
  12.500   0.9610   0.10672   0.09623  -0.0486  0.2465  1.0000  -2.7888   0.0000   0.0000   0.0000   0.2857
  12.600   0.9578   0.10873   0.09826  -0.0493  0.2435  1.0000  -2.7845   0.0000   0.0000   0.0000   0.2865
  12.700   0.9651   0.10915   0.09875  -0.0490  0.2404  1.0000  -2.8507   0.0000   0.0000   0.0000   0.2855
  12.800   0.9879   0.10713   0.09690  -0.0469  0.2376  1.0000  -3.0333   0.0000   0.0000   0.0000   0.2820
  12.900   0.9652   0.11226   0.10191  -0.0497  0.2350  1.0000  -2.8859   0.0000   0.0000   0.0000   0.2861
  13.000   0.9548   0.11539   0.10501  -0.0513  0.2324  1.0000  -2.8272   0.0000   0.0000   0.0000   0.2882
  13.100   0.9527   0.11727   0.10692  -0.0520  0.2296  1.0000  -2.8272   0.0000   0.0000   0.0000   0.2890
  13.200   0.9594   0.11783   0.10755  -0.0517  0.2267  1.0000  -2.8931   0.0000   0.0000   0.0000   0.2881
  13.300   0.9783   0.11646   0.10631  -0.0500  0.2236  1.0000  -3.0533   0.0000   0.0000   0.0000   0.2851
  13.400   0.9607   0.12072   0.11049  -0.0525  0.2213  1.0000  -2.9351   0.0000   0.0000   0.0000   0.2886
  13.500   0.9522   0.12353   0.11328  -0.0540  0.2189  1.0000  -2.8847   0.0000   0.0000   0.0000   0.2906
  13.600   0.9499   0.12542   0.11519  -0.0548  0.2163  1.0000  -2.8808   0.0000   0.0000   0.0000   0.2915
  13.700   0.9546   0.12629   0.11613  -0.0547  0.2135  1.0000  -2.9299   0.0000   0.0000   0.0000   0.2910
  13.800   0.9736   0.12498   0.11495  -0.0529  0.2101  1.0000  -3.0933   0.0000   0.0000   0.0000   0.2877
  13.900   0.9593   0.12868   0.11859  -0.0552  0.2080  1.0000  -2.9937   0.0000   0.0000   0.0000   0.2909
  14.000   0.9514   0.13135   0.12124  -0.0568  0.2057  1.0000  -2.9427   0.0000   0.0000   0.0000   0.2930
  14.100   0.9494   0.13315   0.12305  -0.0576  0.2029  1.0000  -2.9384   0.0000   0.0000   0.0000   0.2938
  14.200   0.9540   0.13402   0.12399  -0.0576  0.2000  1.0000  -2.9857   0.0000   0.0000   0.0000   0.2934
  14.300   0.9696   0.13325   0.12333  -0.0561  0.1965  1.0000  -3.1249   0.0000   0.0000   0.0000   0.2906
  14.400   0.9580   0.13651   0.12654  -0.0582  0.1947  1.0000  -3.0389   0.0000   0.0000   0.0000   0.2935
  14.500   0.9514   0.13897   0.12898  -0.0597  0.1924  1.0000  -2.9933   0.0000   0.0000   0.0000   0.2954
  14.600   0.9499   0.14067   0.13070  -0.0605  0.1896  1.0000  -2.9892   0.0000   0.0000   0.0000   0.2962
  14.700   0.9559   0.14132   0.13142  -0.0603  0.1864  1.0000  -3.0473   0.0000   0.0000   0.0000   0.2954
  14.800   0.9658   0.14138   0.13156  -0.0595  0.1830  1.0000  -3.1397   0.0000   0.0000   0.0000   0.2938
  14.900   0.9569   0.14422   0.13436  -0.0614  0.1812  1.0000  -3.0695   0.0000   0.0000   0.0000   0.2963
  15.000   0.9520   0.14641   0.13654  -0.0627  0.1789  1.0000  -3.0324   0.0000   0.0000   0.0000   0.2979


