xflr5 v6.59

 Calculated polar for: SUAV_Foil

 1 1 Reynolds number fixed          Mach number fixed         

 xtrf =   1.000 (top)        1.000 (bottom)
 Mach =   0.050     Re =     0.040 e 6     Ncrit =   5.000

  alpha     CL        CD       CDp       Cm    Top Xtr Bot Xtr   Cpmin    Chinge    XCp    
 ------- -------- --------- --------- -------- ------- ------- -------- --------- ---------
  -3.000  -0.0569   0.02800   0.01692  -0.0808  0.8835  0.2248  -1.5514   0.0000   0.0000   0.0000  -1.1934
  -2.900  -0.0415   0.02774   0.01666  -0.0816  0.8797  0.2374  -1.4991   0.0000   0.0000   0.0000  -1.7490
  -2.800  -0.0247   0.02747   0.01637  -0.0826  0.8765  0.2519  -1.4443   0.0000   0.0000   0.0000  -3.1468
  -2.700  -0.0071   0.02722   0.01618  -0.0838  0.8737  0.2687  -1.3866   0.0000   0.0000   0.0000  -11.6820
  -2.600   0.0112   0.02699   0.01599  -0.0850  0.8713  0.2876  -1.3273   0.0000   0.0000   0.0000   7.9195
  -2.500   0.0156   0.02696   0.01600  -0.0840  0.8641  0.2994  -1.2999   0.0000   0.0000   0.0000   5.6907
  -2.400   0.0265   0.02687   0.01594  -0.0840  0.8589  0.3169  -1.2604   0.0000   0.0000   0.0000   3.4565
  -2.300   0.0401   0.02676   0.01588  -0.0843  0.8548  0.3369  -1.2152   0.0000   0.0000   0.0000   2.3789
  -2.200   0.0552   0.02666   0.01582  -0.0849  0.8514  0.3590  -1.1669   0.0000   0.0000   0.0000   1.8066
  -2.100   0.0712   0.02656   0.01574  -0.0856  0.8484  0.3824  -1.1209   0.0000   0.0000   0.0000   1.4667
  -2.000   0.0874   0.02647   0.01564  -0.0863  0.8457  0.4059  -1.0743   0.0000   0.0000   0.0000   1.2474
  -1.900   0.0985   0.02646   0.01562  -0.0862  0.8414  0.4254  -1.0372   0.0000   0.0000   0.0000   1.1336
  -1.800   0.1046   0.02652   0.01569  -0.0853  0.8351  0.4404  -1.0091   0.0000   0.0000   0.0000   1.0735
  -1.700   0.1156   0.02651   0.01567  -0.0852  0.8306  0.4588  -0.9725   0.0000   0.0000   0.0000   0.9939
  -1.600   0.1285   0.02646   0.01562  -0.0853  0.8269  0.4776  -0.9322   0.0000   0.0000   0.0000   0.9198
  -1.500   0.1425   0.02638   0.01553  -0.0856  0.8238  0.4966  -0.8931   0.0000   0.0000   0.0000   0.8553
  -1.400   0.1576   0.02628   0.01541  -0.0860  0.8211  0.5165  -0.8530   0.0000   0.0000   0.0000   0.7997
  -1.300   0.1730   0.02615   0.01527  -0.0864  0.8187  0.5348  -0.8125   0.0000   0.0000   0.0000   0.7530
  -1.200   0.1754   0.02629   0.01540  -0.0851  0.8118  0.5466  -0.7937   0.0000   0.0000   0.0000   0.7380
  -1.100   0.1847   0.02627   0.01539  -0.0847  0.8071  0.5618  -0.7655   0.0000   0.0000   0.0000   0.7110
  -1.000   0.1963   0.02619   0.01531  -0.0846  0.8035  0.5780  -0.7345   0.0000   0.0000   0.0000   0.6829
  -0.900   0.2093   0.02607   0.01520  -0.0846  0.8004  0.5949  -0.7017   0.0000   0.0000   0.0000   0.6561
  -0.800   0.2233   0.02592   0.01506  -0.0848  0.7977  0.6122  -0.6678   0.0000   0.0000   0.0000   0.6314
  -0.700   0.2379   0.02574   0.01489  -0.0851  0.7955  0.6300  -0.6332   0.0000   0.0000   0.0000   0.6088
  -0.600   0.2411   0.02583   0.01502  -0.0838  0.7894  0.6420  -0.6161   0.0000   0.0000   0.0000   0.5986
  -0.500   0.2491   0.02580   0.01501  -0.0832  0.7848  0.6568  -0.5934   0.0000   0.0000   0.0000   0.5847
  -0.400   0.2599   0.02569   0.01495  -0.0830  0.7812  0.6737  -0.5808   0.0000   0.0000   0.0000   0.5696
  -0.300   0.2721   0.02554   0.01484  -0.0829  0.7782  0.6925  -0.5889   0.0000   0.0000   0.0000   0.5547
  -0.100   0.2990   0.02513   0.01456  -0.0829  0.7735  0.7367  -0.6081   0.0000   0.0000   0.0000   0.5269
   0.000   0.3031   0.02518   0.01472  -0.0817  0.7680  0.7589  -0.6114   0.0000   0.0000   0.0000   0.5192
   0.200   0.3468   0.02475   0.01456  -0.0853  0.7607  1.0000  -0.6387   0.0000   0.0000   0.0000   0.4952
   0.300   0.3618   0.02481   0.01448  -0.0862  0.7576  1.0000  -0.6490   0.0000   0.0000   0.0000   0.4873
   0.400   0.3778   0.02485   0.01438  -0.0872  0.7550  1.0000  -0.6602   0.0000   0.0000   0.0000   0.4796
   0.500   0.3943   0.02487   0.01427  -0.0881  0.7528  1.0000  -0.6719   0.0000   0.0000   0.0000   0.4723
   0.600   0.3992   0.02520   0.01452  -0.0876  0.7474  1.0000  -0.6759   0.0000   0.0000   0.0000   0.4680
   0.700   0.4086   0.02540   0.01464  -0.0875  0.7430  1.0000  -0.6834   0.0000   0.0000   0.0000   0.4627
   0.800   0.4211   0.02552   0.01466  -0.0879  0.7397  1.0000  -0.6936   0.0000   0.0000   0.0000   0.4570
   0.900   0.4352   0.02559   0.01463  -0.0884  0.7369  1.0000  -0.7059   0.0000   0.0000   0.0000   0.4513
   1.000   0.4503   0.02564   0.01457  -0.0890  0.7345  1.0000  -0.7190   0.0000   0.0000   0.0000   0.4457
   1.100   0.4609   0.02582   0.01467  -0.0890  0.7312  1.0000  -0.7287   0.0000   0.0000   0.0000   0.4411
   1.200   0.4662   0.02615   0.01497  -0.0884  0.7262  1.0000  -0.7354   0.0000   0.0000   0.0000   0.4374
   1.300   0.4766   0.02633   0.01508  -0.0884  0.7226  1.0000  -0.7466   0.0000   0.0000   0.0000   0.4332
   1.400   0.4893   0.02644   0.01512  -0.0886  0.7196  1.0000  -0.7599   0.0000   0.0000   0.0000   0.4287
   1.500   0.5035   0.02650   0.01511  -0.0890  0.7172  1.0000  -0.7760   0.0000   0.0000   0.0000   0.4243
   1.600   0.5186   0.02654   0.01507  -0.0895  0.7151  1.0000  -0.7929   0.0000   0.0000   0.0000   0.4200
   1.700   0.5213   0.02698   0.01549  -0.0886  0.7098  1.0000  -0.7990   0.0000   0.0000   0.0000   0.4172
   1.800   0.5299   0.02722   0.01569  -0.0883  0.7060  1.0000  -0.8102   0.0000   0.0000   0.0000   0.4139
   1.900   0.5417   0.02736   0.01579  -0.0884  0.7029  1.0000  -0.8245   0.0000   0.0000   0.0000   0.4103
   2.000   0.5552   0.02744   0.01581  -0.0886  0.7004  1.0000  -0.8421   0.0000   0.0000   0.0000   0.4067
   2.100   0.5700   0.02748   0.01580  -0.0891  0.6982  1.0000  -0.8609   0.0000   0.0000   0.0000   0.4032
   2.200   0.5737   0.02791   0.01621  -0.0882  0.6934  1.0000  -0.8690   0.0000   0.0000   0.0000   0.4006
   2.300   0.5814   0.02819   0.01647  -0.0878  0.6894  1.0000  -0.8811   0.0000   0.0000   0.0000   0.3978
   2.400   0.5929   0.02834   0.01659  -0.0878  0.6864  1.0000  -0.8968   0.0000   0.0000   0.0000   0.3948
   2.500   0.6064   0.02842   0.01664  -0.0881  0.6839  1.0000  -0.9146   0.0000   0.0000   0.0000   0.3918
   2.600   0.6212   0.02845   0.01663  -0.0884  0.6818  1.0000  -0.9349   0.0000   0.0000   0.0000   0.3888
   2.700   0.6230   0.02896   0.01714  -0.0874  0.6766  1.0000  -0.9418   0.0000   0.0000   0.0000   0.3866
   2.800   0.6314   0.02922   0.01739  -0.0870  0.6728  1.0000  -0.9556   0.0000   0.0000   0.0000   0.3841
   2.900   0.6435   0.02934   0.01749  -0.0871  0.6699  1.0000  -0.9733   0.0000   0.0000   0.0000   0.3815
   3.000   0.6576   0.02940   0.01751  -0.0874  0.6676  1.0000  -0.9931   0.0000   0.0000   0.0000   0.3789
   3.100   0.6668   0.02964   0.01774  -0.0871  0.6642  1.0000  -1.0082   0.0000   0.0000   0.0000   0.3766
   3.200   0.6706   0.03008   0.01821  -0.0862  0.6594  1.0000  -1.0180   0.0000   0.0000   0.0000   0.3745
   3.300   0.6812   0.03026   0.01838  -0.0861  0.6561  1.0000  -1.0354   0.0000   0.0000   0.0000   0.3722
   3.400   0.6949   0.03032   0.01842  -0.0863  0.6535  1.0000  -1.0561   0.0000   0.0000   0.0000   0.3699
   3.500   0.7105   0.03030   0.01838  -0.0867  0.6513  1.0000  -1.0791   0.0000   0.0000   0.0000   0.3676
   3.600   0.7094   0.03095   0.01906  -0.0853  0.6455  1.0000  -1.0836   0.0000   0.0000   0.0000   0.3658
   3.700   0.7194   0.03115   0.01925  -0.0851  0.6419  1.0000  -1.1005   0.0000   0.0000   0.0000   0.3637
   3.800   0.7332   0.03118   0.01928  -0.0852  0.6392  1.0000  -1.1218   0.0000   0.0000   0.0000   0.3616
   3.900   0.7478   0.03120   0.01930  -0.0855  0.6367  1.0000  -1.1441   0.0000   0.0000   0.0000   0.3595
   4.000   0.7471   0.03183   0.01997  -0.0842  0.6309  1.0000  -1.1490   0.0000   0.0000   0.0000   0.3577
   4.100   0.7580   0.03198   0.02013  -0.0840  0.6274  1.0000  -1.1677   0.0000   0.0000   0.0000   0.3558
   4.200   0.7730   0.03196   0.02010  -0.0842  0.6246  1.0000  -1.1920   0.0000   0.0000   0.0000   0.3538
   4.300   0.7792   0.03231   0.02047  -0.0836  0.6203  1.0000  -1.2058   0.0000   0.0000   0.0000   0.3521
   4.400   0.7848   0.03268   0.02086  -0.0829  0.6156  1.0000  -1.2190   0.0000   0.0000   0.0000   0.3503
   4.500   0.7984   0.03270   0.02088  -0.0829  0.6123  1.0000  -1.2419   0.0000   0.0000   0.0000   0.3484
   4.600   0.8156   0.03256   0.02076  -0.0833  0.6097  1.0000  -1.2693   0.0000   0.0000   0.0000   0.3466
   4.700   0.8129   0.03328   0.02153  -0.0818  0.6034  1.0000  -1.2725   0.0000   0.0000   0.0000   0.3450
   4.800   0.8252   0.03333   0.02159  -0.0817  0.5996  1.0000  -1.2942   0.0000   0.0000   0.0000   0.3432
   4.900   0.8426   0.03315   0.02141  -0.0820  0.5967  1.0000  -1.3231   0.0000   0.0000   0.0000   0.3415
   5.000   0.8410   0.03383   0.02213  -0.0806  0.5905  1.0000  -1.3282   0.0000   0.0000   0.0000   0.3399
   5.100   0.8528   0.03388   0.02220  -0.0804  0.5863  1.0000  -1.3509   0.0000   0.0000   0.0000   0.3382
   5.200   0.8708   0.03365   0.02198  -0.0808  0.5832  1.0000  -1.3817   0.0000   0.0000   0.0000   0.3366
   5.300   0.8683   0.03435   0.02274  -0.0792  0.5768  1.0000  -1.3857   0.0000   0.0000   0.0000   0.3350
   5.400   0.8810   0.03435   0.02275  -0.0791  0.5726  1.0000  -1.4099   0.0000   0.0000   0.0000   0.3334
   5.500   0.8976   0.03415   0.02258  -0.0793  0.5690  1.0000  -1.4394   0.0000   0.0000   0.0000   0.3319
   5.600   0.8951   0.03485   0.02334  -0.0778  0.5624  1.0000  -1.4434   0.0000   0.0000   0.0000   0.3303
   5.700   0.9099   0.03472   0.02323  -0.0778  0.5583  1.0000  -1.4706   0.0000   0.0000   0.0000   0.3288
   5.800   0.9172   0.03495   0.02349  -0.0771  0.5532  1.0000  -1.4886   0.0000   0.0000   0.0000   0.3273
   5.900   0.9222   0.03527   0.02386  -0.0762  0.5476  1.0000  -1.5038   0.0000   0.0000   0.0000   0.3257
   6.000   0.9397   0.03499   0.02359  -0.0764  0.5436  1.0000  -1.5370   0.0000   0.0000   0.0000   0.3243
   6.100   0.9389   0.03559   0.02425  -0.0750  0.5373  1.0000  -1.5440   0.0000   0.0000   0.0000   0.3228
   6.200   0.9505   0.03557   0.02426  -0.0747  0.5323  1.0000  -1.5689   0.0000   0.0000   0.0000   0.3213
   6.300   0.9630   0.03551   0.02425  -0.0745  0.5275  1.0000  -1.5953   0.0000   0.0000   0.0000   0.3199
   6.400   0.9635   0.03603   0.02482  -0.0732  0.5211  1.0000  -1.6052   0.0000   0.0000   0.0000   0.3184
   6.500   0.9807   0.03571   0.02453  -0.0733  0.5167  1.0000  -1.6405   0.0000   0.0000   0.0000   0.3171
   6.600   0.9796   0.03631   0.02519  -0.0719  0.5102  1.0000  -1.6479   0.0000   0.0000   0.0000   0.3156
   6.700   0.9910   0.03625   0.02517  -0.0715  0.5049  1.0000  -1.6748   0.0000   0.0000   0.0000   0.3142
   6.800   0.9996   0.03635   0.02531  -0.0709  0.4994  1.0000  -1.6971   0.0000   0.0000   0.0000   0.3129
   6.900   1.0028   0.03671   0.02572  -0.0698  0.4932  1.0000  -1.7113   0.0000   0.0000   0.0000   0.3114
   7.000   1.0220   0.03624   0.02527  -0.0700  0.4886  1.0000  -1.7513   0.0000   0.0000   0.0000   0.3103
   7.100   1.0160   0.03706   0.02617  -0.0682  0.4814  1.0000  -1.7516   0.0000   0.0000   0.0000   0.3087
   7.200   1.0313   0.03677   0.02592  -0.0681  0.4762  1.0000  -1.7884   0.0000   0.0000   0.0000   0.3075
   7.300   1.0306   0.03731   0.02653  -0.0666  0.4696  1.0000  -1.7984   0.0000   0.0000   0.0000   0.3060
   7.400   1.0412   0.03725   0.02650  -0.0661  0.4637  1.0000  -1.8587   0.0000   0.0000   0.0000   0.3047
   7.500   1.0461   0.03749   0.02679  -0.0652  0.4576  1.0000  -1.9124   0.0000   0.0000   0.0000   0.3034
   7.600   1.0514   0.03770   0.02705  -0.0642  0.4512  1.0000  -1.9682   0.0000   0.0000   0.0000   0.3021
   7.700   1.0619   0.03763   0.02702  -0.0637  0.4454  1.0000  -2.0453   0.0000   0.0000   0.0000   0.3008
   7.800   1.0618   0.03812   0.02756  -0.0623  0.4386  1.0000  -2.0803   0.0000   0.0000   0.0000   0.2994
   7.900   1.0765   0.03780   0.02726  -0.0621  0.4328  1.0000  -2.1765   0.0000   0.0000   0.0000   0.2983
   8.000   1.0721   0.03852   0.02806  -0.0604  0.4258  1.0000  -2.1941   0.0000   0.0000   0.0000   0.2968
   8.100   1.0895   0.03806   0.02761  -0.0604  0.4200  1.0000  -2.3028   0.0000   0.0000   0.0000   0.2957
   8.200   1.0824   0.03893   0.02858  -0.0585  0.4130  1.0000  -2.3094   0.0000   0.0000   0.0000   0.2942
   8.300   1.0969   0.03862   0.02828  -0.0582  0.4069  1.0000  -2.4076   0.0000   0.0000   0.0000   0.2931
   8.400   1.0925   0.03935   0.02907  -0.0566  0.4002  1.0000  -2.4256   0.0000   0.0000   0.0000   0.2917
   8.500   1.1033   0.03924   0.02898  -0.0560  0.3939  1.0000  -2.5095   0.0000   0.0000   0.0000   0.2905
   8.600   1.1021   0.03976   0.02955  -0.0546  0.3876  1.0000  -2.5416   0.0000   0.0000   0.0000   0.2891
   8.700   1.1079   0.03991   0.02972  -0.0536  0.3812  1.0000  -2.6047   0.0000   0.0000   0.0000   0.2879
   8.800   1.1122   0.04015   0.02999  -0.0526  0.3750  1.0000  -2.6615   0.0000   0.0000   0.0000   0.2866
   8.900   1.1131   0.04058   0.03046  -0.0513  0.3687  1.0000  -2.7036   0.0000   0.0000   0.0000   0.2853
   9.000   1.1235   0.04052   0.03040  -0.0508  0.3625  1.0000  -2.7883   0.0000   0.0000   0.0000   0.2842
   9.100   1.1198   0.04125   0.03119  -0.0492  0.3565  1.0000  -2.8095   0.0000   0.0000   0.0000   0.2829
   9.200   1.1357   0.04091   0.03082  -0.0491  0.3503  1.0000  -2.9201   0.0000   0.0000   0.0000   0.2820
   9.300   1.1284   0.04189   0.03186  -0.0474  0.3446  1.0000  -2.9246   0.0000   0.0000   0.0000   0.2806
   9.400   1.1362   0.04200   0.03200  -0.0467  0.3386  1.0000  -2.9992   0.0000   0.0000   0.0000   0.2796
   9.500   1.1393   0.04242   0.03245  -0.0457  0.3329  1.0000  -3.0536   0.0000   0.0000   0.0000   0.2785
   9.600   1.1401   0.04300   0.03307  -0.0446  0.3272  1.0000  -3.0983   0.0000   0.0000   0.0000   0.2774
   9.700   1.1538   0.04282   0.03284  -0.0443  0.3215  1.0000  -3.2100   0.0000   0.0000   0.0000   0.2765
   9.800   1.1483   0.04384   0.03394  -0.0430  0.3164  1.0000  -3.2219   0.0000   0.0000   0.0000   0.2754
   9.900   1.1547   0.04412   0.03423  -0.0423  0.3110  1.0000  -3.2965   0.0000   0.0000   0.0000   0.2744
  10.000   1.1617   0.04439   0.03450  -0.0417  0.3058  1.0000  -3.3741   0.0000   0.0000   0.0000   0.2735
  10.100   1.1591   0.04528   0.03545  -0.0406  0.3009  1.0000  -3.4015   0.0000   0.0000   0.0000   0.2725
  10.200   1.1686   0.04539   0.03555  -0.0401  0.2956  1.0000  -3.4938   0.0000   0.0000   0.0000   0.2716
  10.300   1.1713   0.04600   0.03618  -0.0393  0.2909  1.0000  -3.5485   0.0000   0.0000   0.0000   0.2708
  10.400   1.1697   0.04689   0.03714  -0.0384  0.2865  1.0000  -3.5807   0.0000   0.0000   0.0000   0.2699
  10.500   1.1791   0.04707   0.03731  -0.0379  0.2816  1.0000  -3.6728   0.0000   0.0000   0.0000   0.2691
  10.600   1.1828   0.04766   0.03792  -0.0373  0.2772  1.0000  -3.7337   0.0000   0.0000   0.0000   0.2683
  10.700   1.1797   0.04870   0.03904  -0.0364  0.2732  1.0000  -3.7570   0.0000   0.0000   0.0000   0.2675
  10.800   1.1862   0.04909   0.03946  -0.0358  0.2686  1.0000  -3.8341   0.0000   0.0000   0.0000   0.2667
  10.900   1.1951   0.04935   0.03971  -0.0354  0.2641  1.0000  -3.9256   0.0000   0.0000   0.0000   0.2659
  11.000   1.1894   0.05063   0.04110  -0.0345  0.2606  1.0000  -3.9329   0.0000   0.0000   0.0000   0.2652
  11.100   1.1906   0.05145   0.04197  -0.0339  0.2567  1.0000  -3.9798   0.0000   0.0000   0.0000   0.2645
  11.200   1.2064   0.05124   0.04172  -0.0336  0.2518  1.0000  -4.1118   0.0000   0.0000   0.0000   0.2637
  11.300   1.2006   0.05257   0.04313  -0.0329  0.2487  1.0000  -4.1181   0.0000   0.0000   0.0000   0.2631
  11.400   1.1959   0.05385   0.04451  -0.0322  0.2454  1.0000  -4.1303   0.0000   0.0000   0.0000   0.2625
  11.500   1.1998   0.05449   0.04518  -0.0317  0.2415  1.0000  -4.1937   0.0000   0.0000   0.0000   0.2618
  11.600   1.2141   0.05438   0.04503  -0.0313  0.2368  1.0000  -4.3189   0.0000   0.0000   0.0000   0.2610
  11.700   1.2050   0.05605   0.04683  -0.0307  0.2343  1.0000  -4.3037   0.0000   0.0000   0.0000   0.2606
  11.800   1.1998   0.05747   0.04834  -0.0303  0.2313  1.0000  -4.3113   0.0000   0.0000   0.0000   0.2601
  11.900   1.2042   0.05809   0.04899  -0.0298  0.2274  1.0000  -4.3779   0.0000   0.0000   0.0000   0.2595
  12.000   1.2170   0.05802   0.04889  -0.0293  0.2228  1.0000  -4.4968   0.0000   0.0000   0.0000   0.2587
  12.100   1.2065   0.05992   0.05091  -0.0290  0.2206  1.0000  -4.4709   0.0000   0.0000   0.0000   0.2584
  12.200   1.1991   0.06163   0.05272  -0.0287  0.2179  1.0000  -4.4634   0.0000   0.0000   0.0000   0.2582
  12.300   1.2007   0.06253   0.05367  -0.0283  0.2144  1.0000  -4.5120   0.0000   0.0000   0.0000   0.2577
  12.400   1.2166   0.06206   0.05318  -0.0277  0.2093  1.0000  -4.6530   0.0000   0.0000   0.0000   0.2567
  12.500   1.2045   0.06427   0.05551  -0.0276  0.2074  1.0000  -4.6138   0.0000   0.0000   0.0000   0.2568
  12.600   1.1941   0.06642   0.05775  -0.0277  0.2052  1.0000  -4.5845   0.0000   0.0000   0.0000   0.2569
  12.700   1.1893   0.06802   0.05943  -0.0277  0.2024  1.0000  -4.5907   0.0000   0.0000   0.0000   0.2568
  12.800   1.2120   0.06661   0.05794  -0.0266  0.1961  1.0000  -4.7803   0.0000   0.0000   0.0000   0.2552
  12.900   1.1984   0.06918   0.06063  -0.0269  0.1946  1.0000  -4.7272   0.0000   0.0000   0.0000   0.2556
  13.000   1.1851   0.07186   0.06341  -0.0274  0.1930  1.0000  -4.6740   0.0000   0.0000   0.0000   0.2561
  13.100   1.1731   0.07451   0.06615  -0.0280  0.1911  1.0000  -4.6276   0.0000   0.0000   0.0000   0.2567
  13.200   1.1729   0.07565   0.06733  -0.0279  0.1876  1.0000  -4.6630   0.0000   0.0000   0.0000   0.2565
  13.300   1.1876   0.07480   0.06645  -0.0269  0.1821  1.0000  -4.8039   0.0000   0.0000   0.0000   0.2551
  13.400   1.1722   0.07802   0.06977  -0.0279  0.1809  1.0000  -4.7299   0.0000   0.0000   0.0000   0.2561
  13.500   1.1555   0.08159   0.07342  -0.0291  0.1800  1.0000  -4.6433   0.0000   0.0000   0.0000   0.2575
  13.600   1.1368   0.08567   0.07756  -0.0308  0.1791  1.0000  -4.5375   0.0000   0.0000   0.0000   0.2593
  13.700   1.1149   0.09048   0.08240  -0.0330  0.1785  1.0000  -4.4020   0.0000   0.0000   0.0000   0.2617
  13.800   1.0889   0.09626   0.08815  -0.0360  0.1778  1.0000  -4.2269   0.0000   0.0000   0.0000   0.2651
  13.900   1.0702   0.10099   0.09286  -0.0384  0.1762  1.0000  -4.1021   0.0000   0.0000   0.0000   0.2680
  14.000   1.1159   0.09397   0.08599  -0.0335  0.1683  1.0000  -4.5033   0.0000   0.0000   0.0000   0.2616
  14.100   1.0897   0.09999   0.09198  -0.0367  0.1683  1.0000  -4.3175   0.0000   0.0000   0.0000   0.2653
  14.200   1.0594   0.10710   0.09903  -0.0408  0.1680  1.0000  -4.0859   0.0000   0.0000   0.0000   0.2701
  14.300   1.0315   0.11407   0.10591  -0.0449  0.1667  1.0000  -3.8611   0.0000   0.0000   0.0000   0.2753
  14.400   1.0181   0.11829   0.11009  -0.0473  0.1642  1.0000  -3.7568   0.0000   0.0000   0.0000   0.2782
  14.500   1.0711   0.10864   0.10073  -0.0403  0.1571  1.0000  -4.2635   0.0000   0.0000   0.0000   0.2687
  14.600   1.0439   0.11562   0.10760  -0.0445  0.1566  1.0000  -4.0366   0.0000   0.0000   0.0000   0.2738
  14.700   1.0192   0.12234   0.11422  -0.0486  0.1553  1.0000  -3.8196   0.0000   0.0000   0.0000   0.2790
  14.800   1.0050   0.12684   0.11867  -0.0513  0.1531  1.0000  -3.6965   0.0000   0.0000   0.0000   0.2824
  14.900   1.0094   0.12727   0.11916  -0.0512  0.1495  1.0000  -3.7552   0.0000   0.0000   0.0000   0.2818
  15.000   1.0292   0.12413   0.11615  -0.0486  0.1448  1.0000  -3.9725   0.0000   0.0000   0.0000   0.2779


