xflr5 v6.59

 Calculated polar for: SUAV_Foil

 1 1 Reynolds number fixed          Mach number fixed         

 xtrf =   1.000 (top)        1.000 (bottom)
 Mach =   0.050     Re =     0.060 e 6     Ncrit =   5.000

  alpha     CL        CD       CDp       Cm    Top Xtr Bot Xtr   Cpmin    Chinge    XCp    
 ------- -------- --------- --------- -------- ------- ------- -------- --------- ---------
  -3.000   0.0373   0.02104   0.01110  -0.0926  0.8498  0.2189  -1.3893   0.0000   0.0000   0.0000   2.7689
  -2.900   0.0525   0.02078   0.01087  -0.0933  0.8467  0.2335  -1.3343   0.0000   0.0000   0.0000   2.0487
  -2.800   0.0676   0.02054   0.01066  -0.0939  0.8435  0.2499  -1.2828   0.0000   0.0000   0.0000   1.6566
  -2.700   0.0756   0.02045   0.01061  -0.0933  0.8365  0.2638  -1.2474   0.0000   0.0000   0.0000   1.5005
  -2.600   0.0871   0.02031   0.01053  -0.0934  0.8313  0.2810  -1.2046   0.0000   0.0000   0.0000   1.3345
  -2.500   0.1002   0.02017   0.01043  -0.0936  0.8270  0.3005  -1.1600   0.0000   0.0000   0.0000   1.1945
  -2.400   0.1142   0.02004   0.01032  -0.0940  0.8233  0.3216  -1.1162   0.0000   0.0000   0.0000   1.0815
  -2.300   0.1288   0.01993   0.01022  -0.0944  0.8202  0.3432  -1.0716   0.0000   0.0000   0.0000   0.9904
  -2.200   0.1396   0.01990   0.01019  -0.0943  0.8151  0.3619  -1.0341   0.0000   0.0000   0.0000   0.9316
  -2.100   0.1492   0.01990   0.01020  -0.0939  0.8092  0.3783  -0.9987   0.0000   0.0000   0.0000   0.8849
  -2.000   0.1609   0.01987   0.01016  -0.0939  0.8045  0.3961  -0.9597   0.0000   0.0000   0.0000   0.8381
  -1.900   0.1739   0.01982   0.01009  -0.0940  0.8006  0.4135  -0.9187   0.0000   0.0000   0.0000   0.7947
  -1.800   0.1874   0.01976   0.01002  -0.0942  0.7973  0.4300  -0.8801   0.0000   0.0000   0.0000   0.7562
  -1.700   0.1994   0.01974   0.00997  -0.0942  0.7933  0.4454  -0.8444   0.0000   0.0000   0.0000   0.7253
  -1.600   0.2085   0.01977   0.00998  -0.0937  0.7875  0.4585  -0.8138   0.0000   0.0000   0.0000   0.7023
  -1.500   0.2195   0.01976   0.00996  -0.0935  0.7829  0.4721  -0.7803   0.0000   0.0000   0.0000   0.6787
  -1.400   0.2316   0.01972   0.00990  -0.0935  0.7789  0.4859  -0.7477   0.0000   0.0000   0.0000   0.6559
  -1.300   0.2444   0.01967   0.00982  -0.0936  0.7756  0.4994  -0.7144   0.0000   0.0000   0.0000   0.6346
  -1.200   0.2567   0.01962   0.00974  -0.0936  0.7721  0.5124  -0.6822   0.0000   0.0000   0.0000   0.6159
  -1.100   0.2654   0.01965   0.00979  -0.0931  0.7666  0.5235  -0.6556   0.0000   0.0000   0.0000   0.6019
  -1.000   0.2759   0.01964   0.00977  -0.0928  0.7621  0.5355  -0.6264   0.0000   0.0000   0.0000   0.5874
  -0.900   0.2875   0.01960   0.00970  -0.0927  0.7583  0.5479  -0.6051   0.0000   0.0000   0.0000   0.5732
  -0.800   0.2999   0.01955   0.00961  -0.0928  0.7551  0.5607  -0.6135   0.0000   0.0000   0.0000   0.5597
  -0.700   0.3123   0.01947   0.00952  -0.0927  0.7521  0.5727  -0.6220   0.0000   0.0000   0.0000   0.5472
  -0.600   0.3208   0.01950   0.00957  -0.0922  0.7468  0.5832  -0.6279   0.0000   0.0000   0.0000   0.5376
  -0.500   0.3311   0.01948   0.00955  -0.0920  0.7425  0.5949  -0.6350   0.0000   0.0000   0.0000   0.5277
  -0.400   0.3423   0.01942   0.00949  -0.0918  0.7388  0.6068  -0.6428   0.0000   0.0000   0.0000   0.5179
  -0.300   0.3541   0.01934   0.00941  -0.0917  0.7357  0.6186  -0.6510   0.0000   0.0000   0.0000   0.5085
  -0.200   0.3664   0.01926   0.00931  -0.0917  0.7330  0.6313  -0.6596   0.0000   0.0000   0.0000   0.4996
  -0.100   0.3749   0.01927   0.00937  -0.0912  0.7281  0.6429  -0.6656   0.0000   0.0000   0.0000   0.4925
   0.000   0.3848   0.01923   0.00937  -0.0909  0.7241  0.6552  -0.6732   0.0000   0.0000   0.0000   0.4853
   0.100   0.3956   0.01918   0.00933  -0.0906  0.7207  0.6691  -0.6815   0.0000   0.0000   0.0000   0.4781
   0.200   0.4068   0.01907   0.00926  -0.0904  0.7177  0.6838  -0.6901   0.0000   0.0000   0.0000   0.4711
   0.300   0.4184   0.01895   0.00918  -0.0902  0.7151  0.7006  -0.6992   0.0000   0.0000   0.0000   0.4643
   0.400   0.4268   0.01893   0.00924  -0.0896  0.7107  0.7190  -0.7057   0.0000   0.0000   0.0000   0.4586
   0.500   0.4362   0.01885   0.00926  -0.0891  0.7068  0.7427  -0.7135   0.0000   0.0000   0.0000   0.4528
   0.600   0.4473   0.01870   0.00925  -0.0888  0.7036  0.7785  -0.7224   0.0000   0.0000   0.0000   0.4469
   0.700   0.4745   0.01836   0.00909  -0.0915  0.7006  0.9765  -0.7411   0.0000   0.0000   0.0000   0.4411
   0.800   0.4876   0.01842   0.00903  -0.0919  0.6980  1.0000  -0.7529   0.0000   0.0000   0.0000   0.4365
   0.900   0.4976   0.01857   0.00913  -0.0918  0.6939  1.0000  -0.7623   0.0000   0.0000   0.0000   0.4326
   1.000   0.5084   0.01869   0.00919  -0.0919  0.6901  1.0000  -0.7725   0.0000   0.0000   0.0000   0.4286
   1.100   0.5200   0.01879   0.00921  -0.0920  0.6868  1.0000  -0.7848   0.0000   0.0000   0.0000   0.4247
   1.200   0.5321   0.01886   0.00920  -0.0921  0.6840  1.0000  -0.7983   0.0000   0.0000   0.0000   0.4208
   1.300   0.5448   0.01893   0.00918  -0.0923  0.6816  1.0000  -0.8134   0.0000   0.0000   0.0000   0.4170
   1.400   0.5540   0.01910   0.00932  -0.0921  0.6776  1.0000  -0.8255   0.0000   0.0000   0.0000   0.4138
   1.500   0.5644   0.01924   0.00942  -0.0920  0.6740  1.0000  -0.8386   0.0000   0.0000   0.0000   0.4104
   1.600   0.5757   0.01934   0.00947  -0.0920  0.6708  1.0000  -0.8527   0.0000   0.0000   0.0000   0.4071
   1.700   0.5876   0.01942   0.00948  -0.0921  0.6682  1.0000  -0.8688   0.0000   0.0000   0.0000   0.4039
   1.800   0.5996   0.01950   0.00950  -0.0921  0.6656  1.0000  -0.8853   0.0000   0.0000   0.0000   0.4008
   1.900   0.6085   0.01969   0.00968  -0.0919  0.6617  1.0000  -0.8988   0.0000   0.0000   0.0000   0.3980
   2.000   0.6188   0.01983   0.00979  -0.0918  0.6583  1.0000  -0.9138   0.0000   0.0000   0.0000   0.3952
   2.100   0.6300   0.01994   0.00986  -0.0917  0.6553  1.0000  -0.9297   0.0000   0.0000   0.0000   0.3924
   2.200   0.6419   0.02002   0.00989  -0.0917  0.6528  1.0000  -0.9465   0.0000   0.0000   0.0000   0.3896
   2.300   0.6526   0.02015   0.00998  -0.0916  0.6497  1.0000  -0.9629   0.0000   0.0000   0.0000   0.3870
   2.400   0.6617   0.02033   0.01017  -0.0914  0.6459  1.0000  -0.9777   0.0000   0.0000   0.0000   0.3846
   2.500   0.6721   0.02047   0.01028  -0.0912  0.6427  1.0000  -0.9940   0.0000   0.0000   0.0000   0.3821
   2.600   0.6835   0.02057   0.01035  -0.0912  0.6399  1.0000  -1.0114   0.0000   0.0000   0.0000   0.3797
   2.700   0.6956   0.02065   0.01038  -0.0912  0.6375  1.0000  -1.0296   0.0000   0.0000   0.0000   0.3773
   2.800   0.7044   0.02085   0.01060  -0.0909  0.6337  1.0000  -1.0452   0.0000   0.0000   0.0000   0.3751
   2.900   0.7140   0.02101   0.01076  -0.0906  0.6301  1.0000  -1.0617   0.0000   0.0000   0.0000   0.3729
   3.000   0.7248   0.02113   0.01085  -0.0905  0.6271  1.0000  -1.0798   0.0000   0.0000   0.0000   0.3708
   3.100   0.7366   0.02121   0.01090  -0.0904  0.6244  1.0000  -1.0991   0.0000   0.0000   0.0000   0.3686
   3.200   0.7464   0.02138   0.01106  -0.0902  0.6210  1.0000  -1.1161   0.0000   0.0000   0.0000   0.3666
   3.300   0.7554   0.02157   0.01126  -0.0899  0.6171  1.0000  -1.1322   0.0000   0.0000   0.0000   0.3646
   3.400   0.7659   0.02169   0.01138  -0.0897  0.6138  1.0000  -1.1502   0.0000   0.0000   0.0000   0.3626
   3.500   0.7776   0.02177   0.01144  -0.0896  0.6110  1.0000  -1.1697   0.0000   0.0000   0.0000   0.3607
   3.600   0.7874   0.02193   0.01160  -0.0894  0.6075  1.0000  -1.1869   0.0000   0.0000   0.0000   0.3588
   3.700   0.7960   0.02212   0.01181  -0.0890  0.6034  1.0000  -1.2031   0.0000   0.0000   0.0000   0.3570
   3.800   0.8066   0.02224   0.01192  -0.0888  0.5999  1.0000  -1.2226   0.0000   0.0000   0.0000   0.3552
   3.900   0.8186   0.02230   0.01194  -0.0887  0.5970  1.0000  -1.2440   0.0000   0.0000   0.0000   0.3534
   4.000   0.8267   0.02250   0.01218  -0.0883  0.5926  1.0000  -1.2605   0.0000   0.0000   0.0000   0.3517
   4.100   0.8360   0.02266   0.01235  -0.0879  0.5884  1.0000  -1.2787   0.0000   0.0000   0.0000   0.3500
   4.200   0.8473   0.02272   0.01241  -0.0877  0.5849  1.0000  -1.2996   0.0000   0.0000   0.0000   0.3483
   4.300   0.8573   0.02285   0.01253  -0.0874  0.5810  1.0000  -1.3188   0.0000   0.0000   0.0000   0.3466
   4.400   0.8653   0.02304   0.01276  -0.0869  0.5762  1.0000  -1.3357   0.0000   0.0000   0.0000   0.3450
   4.500   0.8761   0.02311   0.01282  -0.0867  0.5723  1.0000  -1.3562   0.0000   0.0000   0.0000   0.3433
   4.600   0.8872   0.02318   0.01287  -0.0865  0.5686  1.0000  -1.3784   0.0000   0.0000   0.0000   0.3418
   4.700   0.8943   0.02340   0.01314  -0.0859  0.5634  1.0000  -1.3953   0.0000   0.0000   0.0000   0.3402
   4.800   0.9046   0.02348   0.01322  -0.0856  0.5592  1.0000  -1.4167   0.0000   0.0000   0.0000   0.3387
   4.900   0.9161   0.02352   0.01324  -0.0854  0.5555  1.0000  -1.4397   0.0000   0.0000   0.0000   0.3372
   5.000   0.9227   0.02375   0.01355  -0.0847  0.5501  1.0000  -1.4561   0.0000   0.0000   0.0000   0.3357
   5.100   0.9328   0.02383   0.01364  -0.0844  0.5458  1.0000  -1.4774   0.0000   0.0000   0.0000   0.3342
   5.200   0.9439   0.02387   0.01366  -0.0841  0.5419  1.0000  -1.5002   0.0000   0.0000   0.0000   0.3328
   5.300   0.9504   0.02409   0.01395  -0.0834  0.5364  1.0000  -1.5167   0.0000   0.0000   0.0000   0.3313
   5.400   0.9606   0.02416   0.01402  -0.0831  0.5319  1.0000  -1.5384   0.0000   0.0000   0.0000   0.3299
   5.500   0.9707   0.02423   0.01410  -0.0827  0.5277  1.0000  -1.5612   0.0000   0.0000   0.0000   0.3285
   5.600   0.9776   0.02443   0.01437  -0.0821  0.5222  1.0000  -1.5796   0.0000   0.0000   0.0000   0.3271
   5.700   0.9879   0.02448   0.01442  -0.0817  0.5178  1.0000  -1.6032   0.0000   0.0000   0.0000   0.3258
   5.800   0.9966   0.02461   0.01459  -0.0812  0.5130  1.0000  -1.6243   0.0000   0.0000   0.0000   0.3244
   5.900   1.0041   0.02477   0.01481  -0.0806  0.5076  1.0000  -1.6438   0.0000   0.0000   0.0000   0.3231
   6.000   1.0148   0.02479   0.01482  -0.0803  0.5032  1.0000  -1.6690   0.0000   0.0000   0.0000   0.3218
   6.100   1.0216   0.02498   0.01507  -0.0796  0.4976  1.0000  -1.6888   0.0000   0.0000   0.0000   0.3205
   6.200   1.0301   0.02509   0.01521  -0.0790  0.4923  1.0000  -1.7114   0.0000   0.0000   0.0000   0.3192
   6.300   1.0404   0.02511   0.01523  -0.0786  0.4877  1.0000  -1.7370   0.0000   0.0000   0.0000   0.3179
   6.400   1.0461   0.02534   0.01554  -0.0778  0.4815  1.0000  -1.7554   0.0000   0.0000   0.0000   0.3166
   6.500   1.0558   0.02538   0.01559  -0.0774  0.4765  1.0000  -1.7802   0.0000   0.0000   0.0000   0.3154
   6.600   1.0626   0.02555   0.01582  -0.0766  0.4707  1.0000  -1.8006   0.0000   0.0000   0.0000   0.3141
   6.700   1.0704   0.02566   0.01599  -0.0760  0.4648  1.0000  -1.8232   0.0000   0.0000   0.0000   0.3128
   6.800   1.0793   0.02573   0.01607  -0.0754  0.4594  1.0000  -1.8580   0.0000   0.0000   0.0000   0.3116
   6.900   1.0852   0.02593   0.01634  -0.0746  0.4529  1.0000  -1.9162   0.0000   0.0000   0.0000   0.3103
   7.000   1.0950   0.02594   0.01634  -0.0741  0.4477  1.0000  -1.9909   0.0000   0.0000   0.0000   0.3092
   7.100   1.0997   0.02619   0.01668  -0.0732  0.4406  1.0000  -2.0452   0.0000   0.0000   0.0000   0.3079
   7.200   1.1083   0.02625   0.01674  -0.0726  0.4348  1.0000  -2.1167   0.0000   0.0000   0.0000   0.3067
   7.300   1.1136   0.02647   0.01703  -0.0717  0.4278  1.0000  -2.1747   0.0000   0.0000   0.0000   0.3054
   7.400   1.1214   0.02655   0.01713  -0.0710  0.4215  1.0000  -2.2441   0.0000   0.0000   0.0000   0.3042
   7.500   1.1268   0.02676   0.01739  -0.0700  0.4143  1.0000  -2.3036   0.0000   0.0000   0.0000   0.3030
   7.600   1.1341   0.02686   0.01752  -0.0693  0.4076  1.0000  -2.3722   0.0000   0.0000   0.0000   0.3018
   7.700   1.1391   0.02709   0.01780  -0.0683  0.4001  1.0000  -2.4313   0.0000   0.0000   0.0000   0.3005
   7.800   1.1461   0.02720   0.01791  -0.0675  0.3932  1.0000  -2.5000   0.0000   0.0000   0.0000   0.2993
   7.900   1.1507   0.02745   0.01822  -0.0665  0.3855  1.0000  -2.5580   0.0000   0.0000   0.0000   0.2981
   8.000   1.1576   0.02757   0.01832  -0.0657  0.3786  1.0000  -2.6274   0.0000   0.0000   0.0000   0.2969
   8.100   1.1615   0.02785   0.01866  -0.0646  0.3705  1.0000  -2.6834   0.0000   0.0000   0.0000   0.2956
   8.200   1.1677   0.02800   0.01878  -0.0637  0.3635  1.0000  -2.7520   0.0000   0.0000   0.0000   0.2944
   8.300   1.1714   0.02829   0.01912  -0.0626  0.3554  1.0000  -2.8122   0.0000   0.0000   0.0000   0.2932
   8.400   1.1766   0.02850   0.01931  -0.0616  0.3483  1.0000  -2.8813   0.0000   0.0000   0.0000   0.2920
   8.500   1.1803   0.02879   0.01963  -0.0605  0.3406  1.0000  -2.9429   0.0000   0.0000   0.0000   0.2908
   8.600   1.1849   0.02904   0.01986  -0.0595  0.3337  1.0000  -3.0096   0.0000   0.0000   0.0000   0.2895
   8.700   1.1884   0.02935   0.02021  -0.0584  0.3265  1.0000  -3.0710   0.0000   0.0000   0.0000   0.2883
   8.800   1.1925   0.02964   0.02047  -0.0573  0.3199  1.0000  -3.1362   0.0000   0.0000   0.0000   0.2871
   8.900   1.1953   0.02998   0.02083  -0.0561  0.3130  1.0000  -3.1949   0.0000   0.0000   0.0000   0.2859
   9.000   1.1988   0.03027   0.02107  -0.0550  0.3071  1.0000  -3.2585   0.0000   0.0000   0.0000   0.2846
   9.100   1.2002   0.03066   0.02150  -0.0536  0.3007  1.0000  -3.3109   0.0000   0.0000   0.0000   0.2833
   9.200   1.2030   0.03099   0.02179  -0.0524  0.2952  1.0000  -3.3714   0.0000   0.0000   0.0000   0.2821
   9.300   1.2049   0.03139   0.02220  -0.0511  0.2895  1.0000  -3.4268   0.0000   0.0000   0.0000   0.2808
   9.400   1.2071   0.03179   0.02261  -0.0499  0.2840  1.0000  -3.4838   0.0000   0.0000   0.0000   0.2796
   9.500   1.2104   0.03215   0.02291  -0.0489  0.2792  1.0000  -3.5480   0.0000   0.0000   0.0000   0.2784
   9.600   1.2118   0.03262   0.02344  -0.0476  0.2738  1.0000  -3.6001   0.0000   0.0000   0.0000   0.2773
   9.700   1.2141   0.03305   0.02386  -0.0465  0.2689  1.0000  -3.6589   0.0000   0.0000   0.0000   0.2761
   9.800   1.2174   0.03346   0.02424  -0.0455  0.2644  1.0000  -3.7230   0.0000   0.0000   0.0000   0.2751
   9.900   1.2189   0.03397   0.02481  -0.0444  0.2595  1.0000  -3.7761   0.0000   0.0000   0.0000   0.2740
  10.000   1.2216   0.03443   0.02527  -0.0434  0.2550  1.0000  -3.8367   0.0000   0.0000   0.0000   0.2729
  10.100   1.2258   0.03486   0.02567  -0.0426  0.2510  1.0000  -3.9060   0.0000   0.0000   0.0000   0.2720
  10.200   1.2272   0.03541   0.02630  -0.0416  0.2465  1.0000  -3.9581   0.0000   0.0000   0.0000   0.2710
  10.300   1.2296   0.03591   0.02683  -0.0406  0.2423  1.0000  -4.0177   0.0000   0.0000   0.0000   0.2700
  10.400   1.2339   0.03635   0.02724  -0.0399  0.2384  1.0000  -4.0878   0.0000   0.0000   0.0000   0.2691
  10.500   1.2361   0.03690   0.02784  -0.0390  0.2345  1.0000  -4.1455   0.0000   0.0000   0.0000   0.2682
  10.600   1.2380   0.03747   0.02846  -0.0381  0.2305  1.0000  -4.2015   0.0000   0.0000   0.0000   0.2673
  10.700   1.2415   0.03797   0.02896  -0.0373  0.2267  1.0000  -4.2673   0.0000   0.0000   0.0000   0.2664
  10.800   1.2466   0.03842   0.02938  -0.0367  0.2232  1.0000  -4.3428   0.0000   0.0000   0.0000   0.2656
  10.900   1.2473   0.03907   0.03014  -0.0358  0.2195  1.0000  -4.3914   0.0000   0.0000   0.0000   0.2647
  11.000   1.2492   0.03966   0.03078  -0.0350  0.2158  1.0000  -4.4486   0.0000   0.0000   0.0000   0.2639
  11.100   1.2531   0.04017   0.03128  -0.0343  0.2123  1.0000  -4.5174   0.0000   0.0000   0.0000   0.2631
  11.200   1.2568   0.04071   0.03182  -0.0336  0.2089  1.0000  -4.5855   0.0000   0.0000   0.0000   0.2623
  11.300   1.2570   0.04142   0.03263  -0.0328  0.2055  1.0000  -4.6316   0.0000   0.0000   0.0000   0.2615
  11.400   1.2587   0.04205   0.03331  -0.0321  0.2020  1.0000  -4.6871   0.0000   0.0000   0.0000   0.2607
  11.500   1.2624   0.04258   0.03383  -0.0314  0.1986  1.0000  -4.7561   0.0000   0.0000   0.0000   0.2600
  11.600   1.2648   0.04319   0.03448  -0.0308  0.1953  1.0000  -4.8170   0.0000   0.0000   0.0000   0.2593
  11.700   1.2637   0.04400   0.03540  -0.0300  0.1921  1.0000  -4.8555   0.0000   0.0000   0.0000   0.2585
  11.800   1.2643   0.04472   0.03617  -0.0293  0.1887  1.0000  -4.9050   0.0000   0.0000   0.0000   0.2578
  11.900   1.2668   0.04529   0.03673  -0.0287  0.1853  1.0000  -4.9686   0.0000   0.0000   0.0000   0.2571
  12.000   1.2671   0.04604   0.03751  -0.0281  0.1820  1.0000  -5.0167   0.0000   0.0000   0.0000   0.2564
  12.100   1.2644   0.04697   0.03855  -0.0274  0.1787  1.0000  -5.0461   0.0000   0.0000   0.0000   0.2558
  12.200   1.2633   0.04780   0.03942  -0.0268  0.1754  1.0000  -5.0862   0.0000   0.0000   0.0000   0.2551
  12.300   1.2640   0.04845   0.04004  -0.0262  0.1718  1.0000  -5.1412   0.0000   0.0000   0.0000   0.2545
  12.400   1.2611   0.04945   0.04110  -0.0256  0.1686  1.0000  -5.1690   0.0000   0.0000   0.0000   0.2540
  12.500   1.2571   0.05055   0.04229  -0.0251  0.1653  1.0000  -5.1898   0.0000   0.0000   0.0000   0.2534
  12.600   1.2545   0.05150   0.04328  -0.0247  0.1618  1.0000  -5.2220   0.0000   0.0000   0.0000   0.2530
  12.700   1.2539   0.05227   0.04396  -0.0243  0.1583  1.0000  -5.2700   0.0000   0.0000   0.0000   0.2524
  12.800   1.2484   0.05362   0.04545  -0.0240  0.1551  1.0000  -5.2780   0.0000   0.0000   0.0000   0.2521
  12.900   1.2441   0.05485   0.04676  -0.0237  0.1517  1.0000  -5.2957   0.0000   0.0000   0.0000   0.2518
  13.000   1.2410   0.05594   0.04784  -0.0235  0.1484  1.0000  -5.3246   0.0000   0.0000   0.0000   0.2515
  13.100   1.2381   0.05706   0.04895  -0.0233  0.1451  1.0000  -5.3532   0.0000   0.0000   0.0000   0.2512
  13.200   1.2330   0.05854   0.05055  -0.0233  0.1418  1.0000  -5.3614   0.0000   0.0000   0.0000   0.2511
  13.300   1.2289   0.05988   0.05193  -0.0233  0.1385  1.0000  -5.3797   0.0000   0.0000   0.0000   0.2510
  13.400   1.2261   0.06104   0.05307  -0.0233  0.1352  1.0000  -5.4092   0.0000   0.0000   0.0000   0.2508
  13.500   1.2218   0.06254   0.05464  -0.0234  0.1320  1.0000  -5.4217   0.0000   0.0000   0.0000   0.2508
  13.600   1.2173   0.06410   0.05629  -0.0236  0.1286  1.0000  -5.4319   0.0000   0.0000   0.0000   0.2509
  13.700   1.2137   0.06551   0.05772  -0.0238  0.1254  1.0000  -5.4514   0.0000   0.0000   0.0000   0.2509
  13.800   1.2107   0.06687   0.05905  -0.0240  0.1223  1.0000  -5.4748   0.0000   0.0000   0.0000   0.2509
  13.900   1.2060   0.06861   0.06093  -0.0244  0.1189  1.0000  -5.4790   0.0000   0.0000   0.0000   0.2511
  14.000   1.2022   0.07021   0.06257  -0.0248  0.1156  1.0000  -5.4920   0.0000   0.0000   0.0000   0.2513
  14.100   1.1991   0.07164   0.06398  -0.0251  0.1126  1.0000  -5.5139   0.0000   0.0000   0.0000   0.2514
  14.200   1.1948   0.07345   0.06587  -0.0256  0.1093  1.0000  -5.5180   0.0000   0.0000   0.0000   0.2517
  14.300   1.1907   0.07523   0.06773  -0.0261  0.1059  1.0000  -5.5238   0.0000   0.0000   0.0000   0.2521
  14.400   1.1872   0.07685   0.06937  -0.0266  0.1028  1.0000  -5.5382   0.0000   0.0000   0.0000   0.2523
  14.500   1.1833   0.07865   0.07121  -0.0272  0.0996  1.0000  -5.5440   0.0000   0.0000   0.0000   0.2527
  14.600   1.1790   0.08057   0.07322  -0.0278  0.0962  1.0000  -5.5442   0.0000   0.0000   0.0000   0.2532
  14.700   1.1753   0.08233   0.07498  -0.0285  0.0931  1.0000  -5.5532   0.0000   0.0000   0.0000   0.2536
  14.800   1.1715   0.08419   0.07686  -0.0291  0.0900  1.0000  -5.5571   0.0000   0.0000   0.0000   0.2541
  14.900   1.1673   0.08621   0.07897  -0.0299  0.0867  1.0000  -5.5524   0.0000   0.0000   0.0000   0.2547
  15.000   1.1636   0.08807   0.08082  -0.0306  0.0837  1.0000  -5.5569   0.0000   0.0000   0.0000   0.2552


