xflr5 v6.59

 Calculated polar for: SUAV_Foil

 1 1 Reynolds number fixed          Mach number fixed         

 xtrf =   1.000 (top)        1.000 (bottom)
 Mach =   0.050     Re =     0.160 e 6     Ncrit =   5.000

  alpha     CL        CD       CDp       Cm    Top Xtr Bot Xtr   Cpmin    Chinge    XCp    
 ------- -------- --------- --------- -------- ------- ------- -------- --------- ---------
  -3.000   0.0977   0.01297   0.00461  -0.0973  0.7482  0.1556  -1.3021   0.0000   0.0000   0.0000   1.2576
  -2.900   0.1085   0.01287   0.00451  -0.0971  0.7419  0.1641  -1.2568   0.0000   0.0000   0.0000   1.1561
  -2.800   0.1193   0.01278   0.00441  -0.0970  0.7362  0.1732  -1.2131   0.0000   0.0000   0.0000   1.0724
  -2.700   0.1301   0.01269   0.00432  -0.0969  0.7307  0.1835  -1.1721   0.0000   0.0000   0.0000   1.0027
  -2.600   0.1409   0.01260   0.00424  -0.0968  0.7247  0.1952  -1.1328   0.0000   0.0000   0.0000   0.9441
  -2.500   0.1517   0.01252   0.00416  -0.0967  0.7192  0.2083  -1.0936   0.0000   0.0000   0.0000   0.8937
  -2.400   0.1625   0.01244   0.00409  -0.0966  0.7142  0.2225  -1.0547   0.0000   0.0000   0.0000   0.8498
  -2.300   0.1732   0.01236   0.00404  -0.0965  0.7086  0.2383  -1.0161   0.0000   0.0000   0.0000   0.8117
  -2.200   0.1840   0.01229   0.00400  -0.0964  0.7033  0.2550  -0.9777   0.0000   0.0000   0.0000   0.7780
  -2.100   0.1947   0.01223   0.00395  -0.0963  0.6986  0.2724  -0.9395   0.0000   0.0000   0.0000   0.7479
  -2.000   0.2055   0.01219   0.00393  -0.0962  0.6937  0.2900  -0.9022   0.0000   0.0000   0.0000   0.7209
  -1.900   0.2163   0.01215   0.00392  -0.0960  0.6888  0.3069  -0.8676   0.0000   0.0000   0.0000   0.6967
  -1.800   0.2271   0.01212   0.00389  -0.0959  0.6843  0.3233  -0.8332   0.0000   0.0000   0.0000   0.6745
  -1.700   0.2380   0.01211   0.00387  -0.0958  0.6802  0.3384  -0.7990   0.0000   0.0000   0.0000   0.6544
  -1.600   0.2489   0.01210   0.00387  -0.0956  0.6756  0.3520  -0.7661   0.0000   0.0000   0.0000   0.6360
  -1.500   0.2597   0.01210   0.00385  -0.0955  0.6713  0.3646  -0.7351   0.0000   0.0000   0.0000   0.6191
  -1.400   0.2706   0.01210   0.00384  -0.0954  0.6674  0.3765  -0.7043   0.0000   0.0000   0.0000   0.6036
  -1.300   0.2815   0.01211   0.00383  -0.0953  0.6635  0.3875  -0.6738   0.0000   0.0000   0.0000   0.5892
  -1.200   0.2924   0.01211   0.00383  -0.0951  0.6595  0.3979  -0.6435   0.0000   0.0000   0.0000   0.5760
  -1.100   0.3033   0.01212   0.00383  -0.0950  0.6557  0.4076  -0.6267   0.0000   0.0000   0.0000   0.5636
  -1.000   0.3142   0.01214   0.00382  -0.0949  0.6524  0.4169  -0.6339   0.0000   0.0000   0.0000   0.5521
  -0.900   0.3251   0.01215   0.00382  -0.0947  0.6490  0.4263  -0.6411   0.0000   0.0000   0.0000   0.5414
  -0.800   0.3361   0.01216   0.00382  -0.0946  0.6453  0.4357  -0.6485   0.0000   0.0000   0.0000   0.5314
  -0.700   0.3469   0.01217   0.00383  -0.0945  0.6419  0.4441  -0.6560   0.0000   0.0000   0.0000   0.5221
  -0.600   0.3578   0.01219   0.00383  -0.0944  0.6388  0.4526  -0.6636   0.0000   0.0000   0.0000   0.5133
  -0.500   0.3688   0.01222   0.00383  -0.0942  0.6357  0.4615  -0.6715   0.0000   0.0000   0.0000   0.5049
  -0.400   0.3796   0.01222   0.00385  -0.0941  0.6323  0.4694  -0.6792   0.0000   0.0000   0.0000   0.4972
  -0.300   0.3905   0.01224   0.00386  -0.0940  0.6291  0.4776  -0.6871   0.0000   0.0000   0.0000   0.4898
  -0.200   0.4014   0.01226   0.00387  -0.0939  0.6263  0.4859  -0.6950   0.0000   0.0000   0.0000   0.4828
  -0.100   0.4122   0.01228   0.00388  -0.0937  0.6238  0.4937  -0.7029   0.0000   0.0000   0.0000   0.4762
   0.000   0.4232   0.01230   0.00390  -0.0936  0.6208  0.5022  -0.7108   0.0000   0.0000   0.0000   0.4699
   0.100   0.4340   0.01230   0.00392  -0.0935  0.6178  0.5101  -0.7186   0.0000   0.0000   0.0000   0.4640
   0.200   0.4449   0.01232   0.00394  -0.0934  0.6149  0.5181  -0.7267   0.0000   0.0000   0.0000   0.4584
   0.300   0.4557   0.01234   0.00395  -0.0932  0.6123  0.5261  -0.7353   0.0000   0.0000   0.0000   0.4529
   0.400   0.4665   0.01237   0.00396  -0.0931  0.6099  0.5340  -0.7440   0.0000   0.0000   0.0000   0.4478
   0.500   0.4774   0.01238   0.00399  -0.0930  0.6070  0.5421  -0.7525   0.0000   0.0000   0.0000   0.4429
   0.600   0.4882   0.01238   0.00402  -0.0929  0.6041  0.5498  -0.7611   0.0000   0.0000   0.0000   0.4382
   0.700   0.4991   0.01240   0.00404  -0.0928  0.6014  0.5580  -0.7699   0.0000   0.0000   0.0000   0.4337
   0.800   0.5099   0.01241   0.00406  -0.0926  0.5990  0.5657  -0.7789   0.0000   0.0000   0.0000   0.4294
   0.900   0.5208   0.01244   0.00407  -0.0925  0.5968  0.5741  -0.7896   0.0000   0.0000   0.0000   0.4253
   1.000   0.5316   0.01244   0.00410  -0.0924  0.5941  0.5820  -0.8003   0.0000   0.0000   0.0000   0.4213
   1.100   0.5423   0.01245   0.00413  -0.0922  0.5913  0.5908  -0.8120   0.0000   0.0000   0.0000   0.4176
   1.200   0.5529   0.01245   0.00416  -0.0921  0.5886  0.5994  -0.8258   0.0000   0.0000   0.0000   0.4139
   1.300   0.5636   0.01246   0.00418  -0.0919  0.5862  0.6090  -0.8396   0.0000   0.0000   0.0000   0.4103
   1.400   0.5742   0.01246   0.00421  -0.0917  0.5840  0.6187  -0.8535   0.0000   0.0000   0.0000   0.4069
   1.500   0.5848   0.01247   0.00424  -0.0915  0.5816  0.6298  -0.8675   0.0000   0.0000   0.0000   0.4036
   1.600   0.5953   0.01245   0.00428  -0.0914  0.5788  0.6423  -0.8829   0.0000   0.0000   0.0000   0.4004
   1.700   0.6059   0.01243   0.00431  -0.0912  0.5761  0.6567  -0.8984   0.0000   0.0000   0.0000   0.3974
   1.800   0.6163   0.01241   0.00434  -0.0909  0.5736  0.6744  -0.9140   0.0000   0.0000   0.0000   0.3943
   1.900   0.6264   0.01236   0.00437  -0.0906  0.5713  0.6984  -0.9293   0.0000   0.0000   0.0000   0.3913
   2.000   0.6359   0.01227   0.00439  -0.0901  0.5692  0.7376  -0.9443   0.0000   0.0000   0.0000   0.3883
   2.100   0.6563   0.01191   0.00439  -0.0916  0.5658  1.0000  -0.9694   0.0000   0.0000   0.0000   0.3861
   2.200   0.6672   0.01197   0.00443  -0.0916  0.5629  1.0000  -0.9863   0.0000   0.0000   0.0000   0.3836
   2.300   0.6781   0.01204   0.00447  -0.0915  0.5602  1.0000  -1.0034   0.0000   0.0000   0.0000   0.3812
   2.400   0.6890   0.01211   0.00450  -0.0914  0.5578  1.0000  -1.0206   0.0000   0.0000   0.0000   0.3788
   2.500   0.6999   0.01219   0.00454  -0.0913  0.5553  1.0000  -1.0386   0.0000   0.0000   0.0000   0.3766
   2.600   0.7106   0.01224   0.00461  -0.0912  0.5520  1.0000  -1.0566   0.0000   0.0000   0.0000   0.3743
   2.700   0.7213   0.01231   0.00466  -0.0911  0.5487  1.0000  -1.0747   0.0000   0.0000   0.0000   0.3722
   2.800   0.7320   0.01237   0.00470  -0.0909  0.5456  1.0000  -1.0930   0.0000   0.0000   0.0000   0.3700
   2.900   0.7427   0.01245   0.00472  -0.0908  0.5428  1.0000  -1.1115   0.0000   0.0000   0.0000   0.3680
   3.000   0.7532   0.01250   0.00479  -0.0906  0.5389  1.0000  -1.1296   0.0000   0.0000   0.0000   0.3660
   3.100   0.7637   0.01256   0.00484  -0.0905  0.5350  1.0000  -1.1478   0.0000   0.0000   0.0000   0.3640
   3.200   0.7742   0.01262   0.00487  -0.0903  0.5315  1.0000  -1.1663   0.0000   0.0000   0.0000   0.3621
   3.300   0.7848   0.01269   0.00492  -0.0901  0.5282  1.0000  -1.1848   0.0000   0.0000   0.0000   0.3602
   3.400   0.7952   0.01275   0.00499  -0.0899  0.5241  1.0000  -1.2031   0.0000   0.0000   0.0000   0.3583
   3.500   0.8056   0.01281   0.00504  -0.0898  0.5203  1.0000  -1.2221   0.0000   0.0000   0.0000   0.3566
   3.600   0.8161   0.01288   0.00507  -0.0896  0.5170  1.0000  -1.2418   0.0000   0.0000   0.0000   0.3548
   3.700   0.8265   0.01294   0.00513  -0.0894  0.5132  1.0000  -1.2615   0.0000   0.0000   0.0000   0.3531
   3.800   0.8368   0.01300   0.00521  -0.0892  0.5092  1.0000  -1.2812   0.0000   0.0000   0.0000   0.3514
   3.900   0.8472   0.01307   0.00526  -0.0890  0.5057  1.0000  -1.3010   0.0000   0.0000   0.0000   0.3498
   4.000   0.8576   0.01314   0.00532  -0.0888  0.5026  1.0000  -1.3210   0.0000   0.0000   0.0000   0.3482
   4.100   0.8679   0.01320   0.00540  -0.0886  0.4987  1.0000  -1.3408   0.0000   0.0000   0.0000   0.3466
   4.200   0.8782   0.01327   0.00547  -0.0884  0.4947  1.0000  -1.3607   0.0000   0.0000   0.0000   0.3451
   4.300   0.8885   0.01334   0.00553  -0.0882  0.4911  1.0000  -1.3814   0.0000   0.0000   0.0000   0.3436
   4.400   0.8987   0.01341   0.00559  -0.0880  0.4878  1.0000  -1.4027   0.0000   0.0000   0.0000   0.3421
   4.500   0.9090   0.01348   0.00568  -0.0878  0.4836  1.0000  -1.4238   0.0000   0.0000   0.0000   0.3407
   4.600   0.9191   0.01355   0.00575  -0.0876  0.4796  1.0000  -1.4451   0.0000   0.0000   0.0000   0.3393
   4.700   0.9293   0.01362   0.00582  -0.0873  0.4761  1.0000  -1.4665   0.0000   0.0000   0.0000   0.3379
   4.800   0.9394   0.01370   0.00591  -0.0871  0.4721  1.0000  -1.4879   0.0000   0.0000   0.0000   0.3365
   4.900   0.9495   0.01377   0.00600  -0.0869  0.4679  1.0000  -1.5093   0.0000   0.0000   0.0000   0.3352
   5.000   0.9595   0.01384   0.00608  -0.0866  0.4640  1.0000  -1.5308   0.0000   0.0000   0.0000   0.3338
   5.100   0.9695   0.01393   0.00615  -0.0864  0.4603  1.0000  -1.5523   0.0000   0.0000   0.0000   0.3325
   5.200   0.9795   0.01400   0.00626  -0.0861  0.4557  1.0000  -1.5738   0.0000   0.0000   0.0000   0.3313
   5.300   0.9894   0.01408   0.00634  -0.0858  0.4513  1.0000  -1.5960   0.0000   0.0000   0.0000   0.3300
   5.400   0.9991   0.01417   0.00641  -0.0855  0.4472  1.0000  -1.6188   0.0000   0.0000   0.0000   0.3287
   5.500   1.0090   0.01424   0.00653  -0.0853  0.4421  1.0000  -1.6417   0.0000   0.0000   0.0000   0.3275
   5.600   1.0187   0.01433   0.00662  -0.0850  0.4372  1.0000  -1.6645   0.0000   0.0000   0.0000   0.3263
   5.700   1.0282   0.01442   0.00671  -0.0846  0.4325  1.0000  -1.6873   0.0000   0.0000   0.0000   0.3251
   5.800   1.0379   0.01450   0.00682  -0.0843  0.4269  1.0000  -1.7110   0.0000   0.0000   0.0000   0.3239
   5.900   1.0473   0.01460   0.00691  -0.0840  0.4216  1.0000  -1.7352   0.0000   0.0000   0.0000   0.3227
   6.000   1.0568   0.01469   0.00702  -0.0837  0.4160  1.0000  -1.7595   0.0000   0.0000   0.0000   0.3216
   6.100   1.0661   0.01479   0.00713  -0.0833  0.4100  1.0000  -1.7837   0.0000   0.0000   0.0000   0.3204
   6.200   1.0752   0.01489   0.00723  -0.0829  0.4043  1.0000  -1.8077   0.0000   0.0000   0.0000   0.3193
   6.300   1.0844   0.01500   0.00737  -0.0825  0.3976  1.0000  -1.8319   0.0000   0.0000   0.0000   0.3182
   6.400   1.0932   0.01511   0.00747  -0.0821  0.3912  1.0000  -1.8557   0.0000   0.0000   0.0000   0.3170
   6.500   1.1023   0.01522   0.00760  -0.0817  0.3837  1.0000  -1.9115   0.0000   0.0000   0.0000   0.3159
   6.600   1.1108   0.01535   0.00771  -0.0812  0.3764  1.0000  -1.9816   0.0000   0.0000   0.0000   0.3148
   6.700   1.1193   0.01548   0.00785  -0.0807  0.3681  1.0000  -2.0525   0.0000   0.0000   0.0000   0.3137
   6.800   1.1277   0.01563   0.00798  -0.0802  0.3598  1.0000  -2.1232   0.0000   0.0000   0.0000   0.3126
   6.900   1.1356   0.01578   0.00811  -0.0796  0.3512  1.0000  -2.1990   0.0000   0.0000   0.0000   0.3114
   7.000   1.1437   0.01594   0.00826  -0.0791  0.3418  1.0000  -2.2764   0.0000   0.0000   0.0000   0.3103
   7.100   1.1512   0.01612   0.00842  -0.0785  0.3327  1.0000  -2.3527   0.0000   0.0000   0.0000   0.3092
   7.200   1.1585   0.01631   0.00859  -0.0778  0.3232  1.0000  -2.4284   0.0000   0.0000   0.0000   0.3081
   7.300   1.1658   0.01651   0.00876  -0.0772  0.3134  1.0000  -2.5050   0.0000   0.0000   0.0000   0.3070
   7.400   1.1726   0.01672   0.00895  -0.0764  0.3041  1.0000  -2.5802   0.0000   0.0000   0.0000   0.3059
   7.500   1.1791   0.01696   0.00914  -0.0757  0.2948  1.0000  -2.6548   0.0000   0.0000   0.0000   0.3047
   7.600   1.1858   0.01718   0.00935  -0.0750  0.2858  1.0000  -2.7310   0.0000   0.0000   0.0000   0.3036
   7.700   1.1920   0.01743   0.00957  -0.0741  0.2775  1.0000  -2.8053   0.0000   0.0000   0.0000   0.3025
   7.800   1.1982   0.01768   0.00979  -0.0734  0.2693  1.0000  -2.8808   0.0000   0.0000   0.0000   0.3014
   7.900   1.2043   0.01793   0.01002  -0.0725  0.2620  1.0000  -2.9558   0.0000   0.0000   0.0000   0.3003
   8.000   1.2102   0.01818   0.01026  -0.0717  0.2546  1.0000  -3.0308   0.0000   0.0000   0.0000   0.2991
   8.100   1.2159   0.01844   0.01050  -0.0708  0.2479  1.0000  -3.1058   0.0000   0.0000   0.0000   0.2980
   8.200   1.2216   0.01870   0.01075  -0.0700  0.2413  1.0000  -3.1807   0.0000   0.0000   0.0000   0.2969
   8.300   1.2268   0.01897   0.01102  -0.0690  0.2355  1.0000  -3.2542   0.0000   0.0000   0.0000   0.2958
   8.400   1.2324   0.01923   0.01127  -0.0682  0.2295  1.0000  -3.3299   0.0000   0.0000   0.0000   0.2947
   8.500   1.2368   0.01952   0.01154  -0.0671  0.2244  1.0000  -3.4010   0.0000   0.0000   0.0000   0.2935
   8.600   1.2424   0.01976   0.01180  -0.0662  0.2193  1.0000  -3.4775   0.0000   0.0000   0.0000   0.2924
   8.700   1.2471   0.02003   0.01207  -0.0652  0.2145  1.0000  -3.5511   0.0000   0.0000   0.0000   0.2913
   8.900   1.2559   0.02056   0.01261  -0.0631  0.2061  1.0000  -3.6953   0.0000   0.0000   0.0000   0.2890
   9.000   1.2594   0.02081   0.01287  -0.0619  0.2020  1.0000  -3.7641   0.0000   0.0000   0.0000   0.2877
   9.100   1.2615   0.02109   0.01315  -0.0604  0.1986  1.0000  -3.8268   0.0000   0.0000   0.0000   0.2864
   9.200   1.2642   0.02136   0.01342  -0.0591  0.1952  1.0000  -3.8924   0.0000   0.0000   0.0000   0.2851
   9.300   1.2680   0.02161   0.01370  -0.0579  0.1915  1.0000  -3.9631   0.0000   0.0000   0.0000   0.2839
   9.400   1.2708   0.02189   0.01399  -0.0567  0.1881  1.0000  -4.0299   0.0000   0.0000   0.0000   0.2826
   9.500   1.2729   0.02220   0.01431  -0.0553  0.1850  1.0000  -4.0933   0.0000   0.0000   0.0000   0.2814
   9.600   1.2760   0.02249   0.01462  -0.0541  0.1820  1.0000  -4.1615   0.0000   0.0000   0.0000   0.2802
   9.700   1.2795   0.02276   0.01493  -0.0530  0.1788  1.0000  -4.2327   0.0000   0.0000   0.0000   0.2790
   9.800   1.2821   0.02307   0.01525  -0.0518  0.1757  1.0000  -4.2992   0.0000   0.0000   0.0000   0.2779
   9.900   1.2838   0.02341   0.01560  -0.0504  0.1727  1.0000  -4.3611   0.0000   0.0000   0.0000   0.2766
  10.000   1.2858   0.02376   0.01595  -0.0492  0.1694  1.0000  -4.4254   0.0000   0.0000   0.0000   0.2755
  10.100   1.2890   0.02406   0.01628  -0.0482  0.1652  1.0000  -4.4957   0.0000   0.0000   0.0000   0.2744
  10.200   1.2901   0.02444   0.01666  -0.0469  0.1611  1.0000  -4.5563   0.0000   0.0000   0.0000   0.2733
  10.300   1.2909   0.02484   0.01705  -0.0456  0.1572  1.0000  -4.6148   0.0000   0.0000   0.0000   0.2721
  10.400   1.2936   0.02518   0.01741  -0.0446  0.1520  1.0000  -4.6836   0.0000   0.0000   0.0000   0.2711
  10.500   1.2937   0.02562   0.01783  -0.0433  0.1476  1.0000  -4.7394   0.0000   0.0000   0.0000   0.2699
  10.600   1.2955   0.02601   0.01823  -0.0422  0.1426  1.0000  -4.8036   0.0000   0.0000   0.0000   0.2689
  10.700   1.2966   0.02644   0.01866  -0.0411  0.1376  1.0000  -4.8643   0.0000   0.0000   0.0000   0.2679
  10.800   1.2967   0.02692   0.01913  -0.0400  0.1333  1.0000  -4.9200   0.0000   0.0000   0.0000   0.2669
  10.900   1.2989   0.02733   0.01956  -0.0391  0.1280  1.0000  -4.9866   0.0000   0.0000   0.0000   0.2659
  11.000   1.2990   0.02785   0.02008  -0.0380  0.1239  1.0000  -5.0417   0.0000   0.0000   0.0000   0.2649
  11.100   1.3011   0.02830   0.02055  -0.0371  0.1197  1.0000  -5.1070   0.0000   0.0000   0.0000   0.2641
  11.200   1.3023   0.02879   0.02106  -0.0362  0.1155  1.0000  -5.1679   0.0000   0.0000   0.0000   0.2632
  11.300   1.3021   0.02937   0.02162  -0.0352  0.1121  1.0000  -5.2208   0.0000   0.0000   0.0000   0.2622
  11.400   1.3047   0.02982   0.02212  -0.0344  0.1078  1.0000  -5.2885   0.0000   0.0000   0.0000   0.2614
  11.500   1.3053   0.03039   0.02269  -0.0335  0.1037  1.0000  -5.3459   0.0000   0.0000   0.0000   0.2606
  11.600   1.3062   0.03096   0.02327  -0.0327  0.0998  1.0000  -5.4036   0.0000   0.0000   0.0000   0.2598
  11.700   1.3074   0.03153   0.02386  -0.0319  0.0953  1.0000  -5.4634   0.0000   0.0000   0.0000   0.2590
  11.800   1.3071   0.03220   0.02452  -0.0311  0.0913  1.0000  -5.5144   0.0000   0.0000   0.0000   0.2582
  11.900   1.3084   0.03279   0.02514  -0.0304  0.0863  1.0000  -5.5737   0.0000   0.0000   0.0000   0.2575
  12.000   1.3079   0.03352   0.02586  -0.0297  0.0818  1.0000  -5.6224   0.0000   0.0000   0.0000   0.2568
  12.100   1.3081   0.03422   0.02656  -0.0290  0.0764  1.0000  -5.6748   0.0000   0.0000   0.0000   0.2561
  12.200   1.3073   0.03501   0.02734  -0.0283  0.0713  1.0000  -5.7208   0.0000   0.0000   0.0000   0.2554
  12.300   1.3062   0.03584   0.02816  -0.0276  0.0660  1.0000  -5.7640   0.0000   0.0000   0.0000   0.2547
  12.400   1.3049   0.03671   0.02902  -0.0270  0.0606  1.0000  -5.8055   0.0000   0.0000   0.0000   0.2541
  12.500   1.3029   0.03766   0.02995  -0.0264  0.0556  1.0000  -5.8422   0.0000   0.0000   0.0000   0.2535
  12.600   1.3006   0.03867   0.03094  -0.0258  0.0506  1.0000  -5.8757   0.0000   0.0000   0.0000   0.2529
  12.700   1.2981   0.03971   0.03197  -0.0253  0.0459  1.0000  -5.9078   0.0000   0.0000   0.0000   0.2523
  12.800   1.2954   0.04080   0.03305  -0.0248  0.0417  1.0000  -5.9371   0.0000   0.0000   0.0000   0.2518
  12.900   1.2924   0.04195   0.03419  -0.0243  0.0379  1.0000  -5.9643   0.0000   0.0000   0.0000   0.2513
  13.000   1.2898   0.04308   0.03533  -0.0240  0.0346  1.0000  -5.9926   0.0000   0.0000   0.0000   0.2509
  13.100   1.2867   0.04429   0.03654  -0.0236  0.0319  1.0000  -6.0173   0.0000   0.0000   0.0000   0.2505
  13.200   1.2843   0.04546   0.03772  -0.0233  0.0295  1.0000  -6.0453   0.0000   0.0000   0.0000   0.2501
  13.300   1.2814   0.04671   0.03898  -0.0231  0.0277  1.0000  -6.0705   0.0000   0.0000   0.0000   0.2498
  13.400   1.2788   0.04794   0.04023  -0.0228  0.0261  1.0000  -6.0967   0.0000   0.0000   0.0000   0.2495
  13.500   1.2767   0.04916   0.04148  -0.0227  0.0246  1.0000  -6.1244   0.0000   0.0000   0.0000   0.2492
  13.600   1.2741   0.05045   0.04280  -0.0226  0.0234  1.0000  -6.1499   0.0000   0.0000   0.0000   0.2490
  13.700   1.2710   0.05181   0.04418  -0.0225  0.0225  1.0000  -6.1727   0.0000   0.0000   0.0000   0.2488
  13.800   1.2692   0.05307   0.04548  -0.0224  0.0215  1.0000  -6.2006   0.0000   0.0000   0.0000   0.2486
  13.900   1.2673   0.05435   0.04682  -0.0224  0.0206  1.0000  -6.2286   0.0000   0.0000   0.0000   0.2484
  14.000   1.2651   0.05569   0.04820  -0.0225  0.0198  1.0000  -6.2555   0.0000   0.0000   0.0000   0.2483
  14.100   1.2626   0.05709   0.04963  -0.0225  0.0192  1.0000  -6.2804   0.0000   0.0000   0.0000   0.2482
  14.200   1.2597   0.05856   0.05114  -0.0227  0.0187  1.0000  -6.3030   0.0000   0.0000   0.0000   0.2481
  14.400   1.2545   0.06150   0.05417  -0.0230  0.0177  1.0000  -6.3477   0.0000   0.0000   0.0000   0.2481
  14.500   1.2525   0.06295   0.05567  -0.0233  0.0173  1.0000  -6.3721   0.0000   0.0000   0.0000   0.2481
  14.600   1.2503   0.06444   0.05722  -0.0235  0.0169  1.0000  -6.3950   0.0000   0.0000   0.0000   0.2482
  14.700   1.2478   0.06598   0.05882  -0.0238  0.0165  1.0000  -6.4164   0.0000   0.0000   0.0000   0.2483
  14.800   1.2452   0.06757   0.06047  -0.0242  0.0162  1.0000  -6.4363   0.0000   0.0000   0.0000   0.2484
  14.900   1.2424   0.06921   0.06215  -0.0246  0.0159  1.0000  -6.4550   0.0000   0.0000   0.0000   0.2486
  15.000   1.2395   0.07090   0.06390  -0.0250  0.0157  1.0000  -6.4717   0.0000   0.0000   0.0000   0.2488


